
 ===================================================
  XFOIL Version 6.99
  Copyright (C) 2000   Mark Drela, Harold Youngren

  This software comes with ABSOLUTELY NO WARRANTY,
    subject to the GNU General Public License.

  Caveat computor
 ===================================================

 File  xfoil.def  not found

   QUIT    Exit program

  .OPER    Direct operating point(s)
  .MDES    Complex mapping design routine
  .QDES    Surface speed design routine
  .GDES    Geometry design routine

   SAVE f  Write airfoil to labeled coordinate file
   PSAV f  Write airfoil to plain coordinate file
   ISAV f  Write airfoil to ISES coordinate file
   MSAV f  Write airfoil to MSES coordinate file
   REVE    Reverse written-airfoil node ordering

   LOAD f  Read buffer airfoil from coordinate file
   NACA i  Set NACA 4,5-digit airfoil and buffer airfoil
   INTE    Set buffer airfoil by interpolating two airfoils
   NORM    Buffer airfoil normalization toggle
   XYCM rr Change CM reference location, currently  0.25000 0.00000

   BEND    Display structural properties of current airfoil

   PCOP    Set current-airfoil panel nodes directly from buffer airfoil points
   PANE    Set current-airfoil panel nodes ( 160 ) based on curvature
  .PPAR    Show/change paneling

  .PLOP    Plotting options

   WDEF f  Write  current-settings file
   RDEF f  Reread current-settings file
   NAME s  Specify new airfoil name
   NINC    Increment name version number

   Z       Zoom    | (available in all menus)
   U       Unzoom  | 

 XFOIL   c>  
 Labeled airfoil file.  Name:  xfoil                                           

 Number of input coordinate points:  51
 Counterclockwise ordering
 Max thickness =     0.070038  at x =   0.283
 Max camber    =    -0.023628  at x =   0.478

  LE  x,y  =  -0.00001   0.00008  |   Chord =   1.01858
  TE  x,y  =   1.00000   0.19366  |

 Current airfoil nodes set from buffer airfoil nodes (  51 )

 WARNING: Poor input coordinate distribution
          Excessive panel angle   78.4  at i =  27
          Repaneling with PANE and/or PPAR suggested
           (doing GDES,CADD before repaneling _may_
            improve excessively coarse LE spacing

 XFOIL   c>  
 XFOIL   c>  
 XFOIL   c>  
.OPERi   c>  
.OPERi   c>  
 Sonic Cp =    -16.31      Sonic Q/Qinf =     4.583


.OPERi   c>  
 M  =    0.2000
 Re =   1000000

.OPERv   c>  
 Polar  1 newly created for accumulation
 Airfoil archived with polar: xfoil                                           

Enter  polar save filename  OR  <return> for no file   s>  
 Polar save file will NOT be written

Enter  polar dump filename  OR  <return> for no file   s>  
 Polar dump file will NOT be written

 Polar accumulation enabled

.OPERva   c>   Calculating unit vorticity distributions ...
 Calculating wake trajectory ...
 Calculating source influence matrix ...

 Solving BL system ...

 Initializing BL ...
    side            1  ...
    side            2  ...
 TRCHEK2: N2 convergence failed.
 x:  0.00056  0.02539  0.02539  N:  0.000  9.000    NaN  Nx:     NaN   dN:       NaN
 MRCHUE: Inverse mode at   3     Hk = 156.678
 TRCHEK2: N2 convergence failed.
 x:  0.00056  0.02539  0.02539  N:  0.000  9.000    NaN  Nx:     NaN   dN:       NaN
 TRCHEK2: N2 convergence failed.
 x:  0.00056  0.02539  0.02539  N:  0.000  9.000    NaN  Nx:     NaN   dN:       NaN
 TRCHEK2: N2 convergence failed.
 x:  0.00056  0.02539  0.02539  N:  0.000  9.000    NaN  Nx:     NaN   dN:       NaN
 TRCHEK2: N2 convergence failed.
 x:  0.00056  0.02539  0.02539  N:  0.000  9.000    NaN  Nx:     NaN   dN:       NaN
 TRCHEK2: N2 convergence failed.
 x:  0.00056  0.02539  0.02539  N:  0.000  9.000    NaN  Nx:     NaN   dN:       NaN
 TRCHEK2: N2 convergence failed.
 x:  0.00056  0.02539  0.02539  N:  0.000  9.000    NaN  Nx:     NaN   dN:       NaN
 TRCHEK2: N2 convergence failed.
 x:  0.00056  0.02539  0.02539  N:  0.000  9.000    NaN  Nx:     NaN   dN:       NaN
 TRCHEK2: N2 convergence failed.
 x:  0.00056  0.02539  0.02539  N:  0.000  9.000    NaN  Nx:     NaN   dN:       NaN
 TRCHEK2: N2 convergence failed.
 x:  0.00056  0.02539  0.02539  N:  0.000  9.000    NaN  Nx:     NaN   dN:       NaN
 TRCHEK2: N2 convergence failed.
 x:  0.00056  0.02539  0.02539  N:  0.000  9.000    NaN  Nx:     NaN   dN:       NaN
 TRCHEK2: N2 convergence failed.
 x:  0.00056  0.02539  0.02539  N:  0.000  9.000    NaN  Nx:     NaN   dN:       NaN
 TRCHEK2: N2 convergence failed.
 x:  0.00056  0.02539  0.02539  N:  0.000  9.000    NaN  Nx:     NaN   dN:       NaN
 TRCHEK2: N2 convergence failed.
 x:  0.00056  0.02539  0.02539  N:  0.000  9.000    NaN  Nx:     NaN   dN:       NaN
 TRCHEK2: N2 convergence failed.
 x:  0.00056  0.02539  0.02539  N:  0.000  9.000    NaN  Nx:     NaN   dN:       NaN
 TRCHEK2: N2 convergence failed.
 x:  0.00056  0.02539  0.02539  N:  0.000  9.000    NaN  Nx:     NaN   dN:       NaN
 TRCHEK2: N2 convergence failed.
 x:  0.00056  0.02539  0.02539  N:  0.000  9.000    NaN  Nx:     NaN   dN:       NaN
 TRCHEK2: N2 convergence failed.
 x:  0.00056  0.02539  0.02539  N:  0.000  9.000    NaN  Nx:     NaN   dN:       NaN
 TRCHEK2: N2 convergence failed.
 x:  0.00056  0.02539  0.02539  N:  0.000  9.000    NaN  Nx:     NaN   dN:       NaN
 TRCHEK2: N2 convergence failed.
 x:  0.00056  0.02539  0.02539  N:  0.000  9.000    NaN  Nx:     NaN   dN:       NaN
 TRCHEK2: N2 convergence failed.
 x:  0.00056  0.02539  0.02539  N:  0.000  9.000    NaN  Nx:     NaN   dN:       NaN
 TRCHEK2: N2 convergence failed.
 x:  0.00056  0.02539  0.02539  N:  0.000  9.000    NaN  Nx:     NaN   dN:       NaN
 TRCHEK2: N2 convergence failed.
 x:  0.00056  0.02539  0.02539  N:  0.000  9.000    NaN  Nx:     NaN   dN:       NaN
 TRCHEK2: N2 convergence failed.
 x:  0.00056  0.02539  0.02539  N:  0.000  9.000    NaN  Nx:     NaN   dN:       NaN
 TRCHEK2: N2 convergence failed.
 x:  0.00056  0.02539  0.02539  N:  0.000  9.000    NaN  Nx:     NaN   dN:       NaN
 MRCHUE: Convergence failed at   3  side 2    Res =         NaN
 TRCHEK2: N2 convergence failed.
 x:  0.00056  0.02539  0.02539  N:  0.000  9.000    NaN  Nx:     NaN   dN:       NaN
 TRCHEK2: N2 convergence failed.
 x:  0.02539  0.05038  0.05038  N:    NaN  9.000    NaN  Nx:     NaN   dN:       NaN
 MRCHUE: Inverse mode at   4     Hk =   3.800
 TRCHEK2: N2 convergence failed.
 x:  0.02539  0.05038  0.05038  N:    NaN  9.000    NaN  Nx:     NaN   dN:       NaN
 TRCHEK2: N2 convergence failed.
 x:  0.02539  0.05038  0.05038  N:    NaN  9.000    NaN  Nx:     NaN   dN:       NaN
 TRCHEK2: N2 convergence failed.
 x:  0.02539  0.05038  0.05038  N:    NaN  9.000    NaN  Nx:     NaN   dN:       NaN
 TRCHEK2: N2 convergence failed.
 x:  0.02539  0.05038  0.05038  N:    NaN  9.000    NaN  Nx:     NaN   dN:       NaN
 TRCHEK2: N2 convergence failed.
 x:  0.02539  0.05038  0.05038  N:    NaN  9.000    NaN  Nx:     NaN   dN:       NaN
 TRCHEK2: N2 convergence failed.
 x:  0.02539  0.05038  0.05038  N:    NaN  9.000    NaN  Nx:     NaN   dN:       NaN
 TRCHEK2: N2 convergence failed.
 x:  0.02539  0.05038  0.05038  N:    NaN  9.000    NaN  Nx:     NaN   dN:       NaN
 TRCHEK2: N2 convergence failed.
 x:  0.02539  0.05038  0.05038  N:    NaN  9.000    NaN  Nx:     NaN   dN:       NaN
 TRCHEK2: N2 convergence failed.
 x:  0.02539  0.05038  0.05038  N:    NaN  9.000    NaN  Nx:     NaN   dN:       NaN
 TRCHEK2: N2 convergence failed.
 x:  0.02539  0.05038  0.05038  N:    NaN  9.000    NaN  Nx:     NaN   dN:       NaN
 TRCHEK2: N2 convergence failed.
 x:  0.02539  0.05038  0.05038  N:    NaN  9.000    NaN  Nx:     NaN   dN:       NaN
 TRCHEK2: N2 convergence failed.
 x:  0.02539  0.05038  0.05038  N:    NaN  9.000    NaN  Nx:     NaN   dN:       NaN
 TRCHEK2: N2 convergence failed.
 x:  0.02539  0.05038  0.05038  N:    NaN  9.000    NaN  Nx:     NaN   dN:       NaN
 TRCHEK2: N2 convergence failed.
 x:  0.02539  0.05038  0.05038  N:    NaN  9.000    NaN  Nx:     NaN   dN:       NaN
 TRCHEK2: N2 convergence failed.
 x:  0.02539  0.05038  0.05038  N:    NaN  9.000    NaN  Nx:     NaN   dN:       NaN
 TRCHEK2: N2 convergence failed.
 x:  0.02539  0.05038  0.05038  N:    NaN  9.000    NaN  Nx:     NaN   dN:       NaN
 TRCHEK2: N2 convergence failed.
 x:  0.02539  0.05038  0.05038  N:    NaN  9.000    NaN  Nx:     NaN   dN:       NaN
 TRCHEK2: N2 convergence failed.
 x:  0.02539  0.05038  0.05038  N:    NaN  9.000    NaN  Nx:     NaN   dN:       NaN
 TRCHEK2: N2 convergence failed.
 x:  0.02539  0.05038  0.05038  N:    NaN  9.000    NaN  Nx:     NaN   dN:       NaN
 TRCHEK2: N2 convergence failed.
 x:  0.02539  0.05038  0.05038  N:    NaN  9.000    NaN  Nx:     NaN   dN:       NaN
 TRCHEK2: N2 convergence failed.
 x:  0.02539  0.05038  0.05038  N:    NaN  9.000    NaN  Nx:     NaN   dN:       NaN
 TRCHEK2: N2 convergence failed.
 x:  0.02539  0.05038  0.05038  N:    NaN  9.000    NaN  Nx:     NaN   dN:       NaN
 TRCHEK2: N2 convergence failed.
 x:  0.02539  0.05038  0.05038  N:    NaN  9.000    NaN  Nx:     NaN   dN:       NaN
 TRCHEK2: N2 convergence failed.
 x:  0.02539  0.05038  0.05038  N:    NaN  9.000    NaN  Nx:     NaN   dN:       NaN
 MRCHUE: Convergence failed at   4  side 2    Res =         NaN
 TRCHEK2: N2 convergence failed.
 x:  0.02539  0.05038  0.05038  N:    NaN  9.000    NaN  Nx:     NaN   dN:       NaN
 TRCHEK2: N2 convergence failed.
 x:  0.05038  0.06700  0.06700  N:    NaN  9.000    NaN  Nx:     NaN   dN:       NaN
 MRCHUE: Inverse mode at   5     Hk =   3.800
 TRCHEK2: N2 convergence failed.
 x:  0.05038  0.06700  0.06700  N:    NaN  9.000    NaN  Nx:     NaN   dN:       NaN
 TRCHEK2: N2 convergence failed.
 x:  0.05038  0.06700  0.06700  N:    NaN  9.000    NaN  Nx:     NaN   dN:       NaN
 TRCHEK2: N2 convergence failed.
 x:  0.05038  0.06700  0.06700  N:    NaN  9.000    NaN  Nx:     NaN   dN:       NaN
 TRCHEK2: N2 convergence failed.
 x:  0.05038  0.06700  0.06700  N:    NaN  9.000    NaN  Nx:     NaN   dN:       NaN
 TRCHEK2: N2 convergence failed.
 x:  0.05038  0.06700  0.06700  N:    NaN  9.000    NaN  Nx:     NaN   dN:       NaN
 TRCHEK2: N2 convergence failed.
 x:  0.05038  0.06700  0.06700  N:    NaN  9.000    NaN  Nx:     NaN   dN:       NaN
 TRCHEK2: N2 convergence failed.
 x:  0.05038  0.06700  0.06700  N:    NaN  9.000    NaN  Nx:     NaN   dN:       NaN
 TRCHEK2: N2 convergence failed.
 x:  0.05038  0.06700  0.06700  N:    NaN  9.000    NaN  Nx:     NaN   dN:       NaN
 TRCHEK2: N2 convergence failed.
 x:  0.05038  0.06700  0.06700  N:    NaN  9.000    NaN  Nx:     NaN   dN:       NaN
 TRCHEK2: N2 convergence failed.
 x:  0.05038  0.06700  0.06700  N:    NaN  9.000    NaN  Nx:     NaN   dN:       NaN
 TRCHEK2: N2 convergence failed.
 x:  0.05038  0.06700  0.06700  N:    NaN  9.000    NaN  Nx:     NaN   dN:       NaN
 TRCHEK2: N2 convergence failed.
 x:  0.05038  0.06700  0.06700  N:    NaN  9.000    NaN  Nx:     NaN   dN:       NaN
 TRCHEK2: N2 convergence failed.
 x:  0.05038  0.06700  0.06700  N:    NaN  9.000    NaN  Nx:     NaN   dN:       NaN
 TRCHEK2: N2 convergence failed.
 x:  0.05038  0.06700  0.06700  N:    NaN  9.000    NaN  Nx:     NaN   dN:       NaN
 TRCHEK2: N2 convergence failed.
 x:  0.05038  0.06700  0.06700  N:    NaN  9.000    NaN  Nx:     NaN   dN:       NaN
 TRCHEK2: N2 convergence failed.
 x:  0.05038  0.06700  0.06700  N:    NaN  9.000    NaN  Nx:     NaN   dN:       NaN
 TRCHEK2: N2 convergence failed.
 x:  0.05038  0.06700  0.06700  N:    NaN  9.000    NaN  Nx:     NaN   dN:       NaN
 TRCHEK2: N2 convergence failed.
 x:  0.05038  0.06700  0.06700  N:    NaN  9.000    NaN  Nx:     NaN   dN:       NaN
 TRCHEK2: N2 convergence failed.
 x:  0.05038  0.06700  0.06700  N:    NaN  9.000    NaN  Nx:     NaN   dN:       NaN
 TRCHEK2: N2 convergence failed.
 x:  0.05038  0.06700  0.06700  N:    NaN  9.000    NaN  Nx:     NaN   dN:       NaN
 TRCHEK2: N2 convergence failed.
 x:  0.05038  0.06700  0.06700  N:    NaN  9.000    NaN  Nx:     NaN   dN:       NaN
 TRCHEK2: N2 convergence failed.
 x:  0.05038  0.06700  0.06700  N:    NaN  9.000    NaN  Nx:     NaN   dN:       NaN
 TRCHEK2: N2 convergence failed.
 x:  0.05038  0.06700  0.06700  N:    NaN  9.000    NaN  Nx:     NaN   dN:       NaN
 TRCHEK2: N2 convergence failed.
 x:  0.05038  0.06700  0.06700  N:    NaN  9.000    NaN  Nx:     NaN   dN:       NaN
 MRCHUE: Convergence failed at   5  side 2    Res =         NaN
 TRCHEK2: N2 convergence failed.
 x:  0.05038  0.06700  0.06700  N:    NaN  9.000    NaN  Nx:     NaN   dN:       NaN
 TRCHEK2: N2 convergence failed.
 x:  0.06700  0.07552  0.07552  N:    NaN  9.000    NaN  Nx:     NaN   dN:       NaN
 MRCHUE: Inverse mode at   6     Hk =   3.800
 TRCHEK2: N2 convergence failed.
 x:  0.06700  0.07552  0.07552  N:    NaN  9.000    NaN  Nx:     NaN   dN:       NaN
 TRCHEK2: N2 convergence failed.
 x:  0.06700  0.07552  0.07552  N:    NaN  9.000    NaN  Nx:     NaN   dN:       NaN
 TRCHEK2: N2 convergence failed.
 x:  0.06700  0.07552  0.07552  N:    NaN  9.000    NaN  Nx:     NaN   dN:       NaN
 TRCHEK2: N2 convergence failed.
 x:  0.06700  0.07552  0.07552  N:    NaN  9.000    NaN  Nx:     NaN   dN:       NaN
 TRCHEK2: N2 convergence failed.
 x:  0.06700  0.07552  0.07552  N:    NaN  9.000    NaN  Nx:     NaN   dN:       NaN
 TRCHEK2: N2 convergence failed.
 x:  0.06700  0.07552  0.07552  N:    NaN  9.000    NaN  Nx:     NaN   dN:       NaN
 TRCHEK2: N2 convergence failed.
 x:  0.06700  0.07552  0.07552  N:    NaN  9.000    NaN  Nx:     NaN   dN:       NaN
 TRCHEK2: N2 convergence failed.
 x:  0.06700  0.07552  0.07552  N:    NaN  9.000    NaN  Nx:     NaN   dN:       NaN
 TRCHEK2: N2 convergence failed.
 x:  0.06700  0.07552  0.07552  N:    NaN  9.000    NaN  Nx:     NaN   dN:       NaN
 TRCHEK2: N2 convergence failed.
 x:  0.06700  0.07552  0.07552  N:    NaN  9.000    NaN  Nx:     NaN   dN:       NaN
 TRCHEK2: N2 convergence failed.
 x:  0.06700  0.07552  0.07552  N:    NaN  9.000    NaN  Nx:     NaN   dN:       NaN
 TRCHEK2: N2 convergence failed.
 x:  0.06700  0.07552  0.07552  N:    NaN  9.000    NaN  Nx:     NaN   dN:       NaN
 TRCHEK2: N2 convergence failed.
 x:  0.06700  0.07552  0.07552  N:    NaN  9.000    NaN  Nx:     NaN   dN:       NaN
 TRCHEK2: N2 convergence failed.
 x:  0.06700  0.07552  0.07552  N:    NaN  9.000    NaN  Nx:     NaN   dN:       NaN
 TRCHEK2: N2 convergence failed.
 x:  0.06700  0.07552  0.07552  N:    NaN  9.000    NaN  Nx:     NaN   dN:       NaN
 TRCHEK2: N2 convergence failed.
 x:  0.06700  0.07552  0.07552  N:    NaN  9.000    NaN  Nx:     NaN   dN:       NaN
 TRCHEK2: N2 convergence failed.
 x:  0.06700  0.07552  0.07552  N:    NaN  9.000    NaN  Nx:     NaN   dN:       NaN
 TRCHEK2: N2 convergence failed.
 x:  0.06700  0.07552  0.07552  N:    NaN  9.000    NaN  Nx:     NaN   dN:       NaN
 TRCHEK2: N2 convergence failed.
 x:  0.06700  0.07552  0.07552  N:    NaN  9.000    NaN  Nx:     NaN   dN:       NaN
 TRCHEK2: N2 convergence failed.
 x:  0.06700  0.07552  0.07552  N:    NaN  9.000    NaN  Nx:     NaN   dN:       NaN
 TRCHEK2: N2 convergence failed.
 x:  0.06700  0.07552  0.07552  N:    NaN  9.000    NaN  Nx:     NaN   dN:       NaN
 TRCHEK2: N2 convergence failed.
 x:  0.06700  0.07552  0.07552  N:    NaN  9.000    NaN  Nx:     NaN   dN:       NaN
 TRCHEK2: N2 convergence failed.
 x:  0.06700  0.07552  0.07552  N:    NaN  9.000    NaN  Nx:     NaN   dN:       NaN
 TRCHEK2: N2 convergence failed.
 x:  0.06700  0.07552  0.07552  N:    NaN  9.000    NaN  Nx:     NaN   dN:       NaN
 MRCHUE: Convergence failed at   6  side 2    Res =         NaN
 TRCHEK2: N2 convergence failed.
 x:  0.06700  0.07552  0.07552  N:    NaN  9.000    NaN  Nx:     NaN   dN:       NaN
 TRCHEK2: N2 convergence failed.
 x:  0.07552  0.10076  0.10076  N:    NaN  9.000    NaN  Nx:     NaN   dN:       NaN
 MRCHUE: Inverse mode at   7     Hk =   3.800
 TRCHEK2: N2 convergence failed.
 x:  0.07552  0.10076  0.10076  N:    NaN  9.000    NaN  Nx:     NaN   dN:       NaN
 TRCHEK2: N2 convergence failed.
 x:  0.07552  0.10076  0.10076  N:    NaN  9.000    NaN  Nx:     NaN   dN:       NaN
 TRCHEK2: N2 convergence failed.
 x:  0.07552  0.10076  0.10076  N:    NaN  9.000    NaN  Nx:     NaN   dN:       NaN
 TRCHEK2: N2 convergence failed.
 x:  0.07552  0.10076  0.10076  N:    NaN  9.000    NaN  Nx:     NaN   dN:       NaN
 TRCHEK2: N2 convergence failed.
 x:  0.07552  0.10076  0.10076  N:    NaN  9.000    NaN  Nx:     NaN   dN:       NaN
 TRCHEK2: N2 convergence failed.
 x:  0.07552  0.10076  0.10076  N:    NaN  9.000    NaN  Nx:     NaN   dN:       NaN
 TRCHEK2: N2 convergence failed.
 x:  0.07552  0.10076  0.10076  N:    NaN  9.000    NaN  Nx:     NaN   dN:       NaN
 TRCHEK2: N2 convergence failed.
 x:  0.07552  0.10076  0.10076  N:    NaN  9.000    NaN  Nx:     NaN   dN:       NaN
 TRCHEK2: N2 convergence failed.
 x:  0.07552  0.10076  0.10076  N:    NaN  9.000    NaN  Nx:     NaN   dN:       NaN
 TRCHEK2: N2 convergence failed.
 x:  0.07552  0.10076  0.10076  N:    NaN  9.000    NaN  Nx:     NaN   dN:       NaN
 TRCHEK2: N2 convergence failed.
 x:  0.07552  0.10076  0.10076  N:    NaN  9.000    NaN  Nx:     NaN   dN:       NaN
 TRCHEK2: N2 convergence failed.
 x:  0.07552  0.10076  0.10076  N:    NaN  9.000    NaN  Nx:     NaN   dN:       NaN
 TRCHEK2: N2 convergence failed.
 x:  0.07552  0.10076  0.10076  N:    NaN  9.000    NaN  Nx:     NaN   dN:       NaN
 TRCHEK2: N2 convergence failed.
 x:  0.07552  0.10076  0.10076  N:    NaN  9.000    NaN  Nx:     NaN   dN:       NaN
 TRCHEK2: N2 convergence failed.
 x:  0.07552  0.10076  0.10076  N:    NaN  9.000    NaN  Nx:     NaN   dN:       NaN
 TRCHEK2: N2 convergence failed.
 x:  0.07552  0.10076  0.10076  N:    NaN  9.000    NaN  Nx:     NaN   dN:       NaN
 TRCHEK2: N2 convergence failed.
 x:  0.07552  0.10076  0.10076  N:    NaN  9.000    NaN  Nx:     NaN   dN:       NaN
 TRCHEK2: N2 convergence failed.
 x:  0.07552  0.10076  0.10076  N:    NaN  9.000    NaN  Nx:     NaN   dN:       NaN
 TRCHEK2: N2 convergence failed.
 x:  0.07552  0.10076  0.10076  N:    NaN  9.000    NaN  Nx:     NaN   dN:       NaN
 TRCHEK2: N2 convergence failed.
 x:  0.07552  0.10076  0.10076  N:    NaN  9.000    NaN  Nx:     NaN   dN:       NaN
 TRCHEK2: N2 convergence failed.
 x:  0.07552  0.10076  0.10076  N:    NaN  9.000    NaN  Nx:     NaN   dN:       NaN
 TRCHEK2: N2 convergence failed.
 x:  0.07552  0.10076  0.10076  N:    NaN  9.000    NaN  Nx:     NaN   dN:       NaN
 TRCHEK2: N2 convergence failed.
 x:  0.07552  0.10076  0.10076  N:    NaN  9.000    NaN  Nx:     NaN   dN:       NaN
 TRCHEK2: N2 convergence failed.
 x:  0.07552  0.10076  0.10076  N:    NaN  9.000    NaN  Nx:     NaN   dN:       NaN
 MRCHUE: Convergence failed at   7  side 2    Res =         NaN
 TRCHEK2: N2 convergence failed.
 x:  0.07552  0.10076  0.10076  N:    NaN  9.000    NaN  Nx:     NaN   dN:       NaN
 TRCHEK2: N2 convergence failed.
 x:  0.10076  0.13471  0.13471  N:    NaN  9.000    NaN  Nx:     NaN   dN:       NaN
 MRCHUE: Inverse mode at   8     Hk =   3.800
 TRCHEK2: N2 convergence failed.
 x:  0.10076  0.13471  0.13471  N:    NaN  9.000    NaN  Nx:     NaN   dN:       NaN
 TRCHEK2: N2 convergence failed.
 x:  0.10076  0.13471  0.13471  N:    NaN  9.000    NaN  Nx:     NaN   dN:       NaN
 TRCHEK2: N2 convergence failed.
 x:  0.10076  0.13471  0.13471  N:    NaN  9.000    NaN  Nx:     NaN   dN:       NaN
 TRCHEK2: N2 convergence failed.
 x:  0.10076  0.13471  0.13471  N:    NaN  9.000    NaN  Nx:     NaN   dN:       NaN
 TRCHEK2: N2 convergence failed.
 x:  0.10076  0.13471  0.13471  N:    NaN  9.000    NaN  Nx:     NaN   dN:       NaN
 TRCHEK2: N2 convergence failed.
 x:  0.10076  0.13471  0.13471  N:    NaN  9.000    NaN  Nx:     NaN   dN:       NaN
 TRCHEK2: N2 convergence failed.
 x:  0.10076  0.13471  0.13471  N:    NaN  9.000    NaN  Nx:     NaN   dN:       NaN
 TRCHEK2: N2 convergence failed.
 x:  0.10076  0.13471  0.13471  N:    NaN  9.000    NaN  Nx:     NaN   dN:       NaN
 TRCHEK2: N2 convergence failed.
 x:  0.10076  0.13471  0.13471  N:    NaN  9.000    NaN  Nx:     NaN   dN:       NaN
 TRCHEK2: N2 convergence failed.
 x:  0.10076  0.13471  0.13471  N:    NaN  9.000    NaN  Nx:     NaN   dN:       NaN
 TRCHEK2: N2 convergence failed.
 x:  0.10076  0.13471  0.13471  N:    NaN  9.000    NaN  Nx:     NaN   dN:       NaN
 TRCHEK2: N2 convergence failed.
 x:  0.10076  0.13471  0.13471  N:    NaN  9.000    NaN  Nx:     NaN   dN:       NaN
 TRCHEK2: N2 convergence failed.
 x:  0.10076  0.13471  0.13471  N:    NaN  9.000    NaN  Nx:     NaN   dN:       NaN
 TRCHEK2: N2 convergence failed.
 x:  0.10076  0.13471  0.13471  N:    NaN  9.000    NaN  Nx:     NaN   dN:       NaN
 TRCHEK2: N2 convergence failed.
 x:  0.10076  0.13471  0.13471  N:    NaN  9.000    NaN  Nx:     NaN   dN:       NaN
 TRCHEK2: N2 convergence failed.
 x:  0.10076  0.13471  0.13471  N:    NaN  9.000    NaN  Nx:     NaN   dN:       NaN
 TRCHEK2: N2 convergence failed.
 x:  0.10076  0.13471  0.13471  N:    NaN  9.000    NaN  Nx:     NaN   dN:       NaN
 TRCHEK2: N2 convergence failed.
 x:  0.10076  0.13471  0.13471  N:    NaN  9.000    NaN  Nx:     NaN   dN:       NaN
 TRCHEK2: N2 convergence failed.
 x:  0.10076  0.13471  0.13471  N:    NaN  9.000    NaN  Nx:     NaN   dN:       NaN
 TRCHEK2: N2 convergence failed.
 x:  0.10076  0.13471  0.13471  N:    NaN  9.000    NaN  Nx:     NaN   dN:       NaN
 TRCHEK2: N2 convergence failed.
 x:  0.10076  0.13471  0.13471  N:    NaN  9.000    NaN  Nx:     NaN   dN:       NaN
 TRCHEK2: N2 convergence failed.
 x:  0.10076  0.13471  0.13471  N:    NaN  9.000    NaN  Nx:     NaN   dN:       NaN
 TRCHEK2: N2 convergence failed.
 x:  0.10076  0.13471  0.13471  N:    NaN  9.000    NaN  Nx:     NaN   dN:       NaN
 TRCHEK2: N2 convergence failed.
 x:  0.10076  0.13471  0.13471  N:    NaN  9.000    NaN  Nx:     NaN   dN:       NaN
 MRCHUE: Convergence failed at   8  side 2    Res =         NaN
 TRCHEK2: N2 convergence failed.
 x:  0.10076  0.13471  0.13471  N:    NaN  9.000    NaN  Nx:     NaN   dN:       NaN
 TRCHEK2: N2 convergence failed.
 x:  0.13471  0.20291  0.20291  N:    NaN  9.000    NaN  Nx:     NaN   dN:       NaN
 MRCHUE: Inverse mode at   9     Hk =   3.800
 TRCHEK2: N2 convergence failed.
 x:  0.13471  0.20291  0.20291  N:    NaN  9.000    NaN  Nx:     NaN   dN:       NaN
 TRCHEK2: N2 convergence failed.
 x:  0.13471  0.20291  0.20291  N:    NaN  9.000    NaN  Nx:     NaN   dN:       NaN
 TRCHEK2: N2 convergence failed.
 x:  0.13471  0.20291  0.20291  N:    NaN  9.000    NaN  Nx:     NaN   dN:       NaN
 TRCHEK2: N2 convergence failed.
 x:  0.13471  0.20291  0.20291  N:    NaN  9.000    NaN  Nx:     NaN   dN:       NaN
 TRCHEK2: N2 convergence failed.
 x:  0.13471  0.20291  0.20291  N:    NaN  9.000    NaN  Nx:     NaN   dN:       NaN
 TRCHEK2: N2 convergence failed.
 x:  0.13471  0.20291  0.20291  N:    NaN  9.000    NaN  Nx:     NaN   dN:       NaN
 TRCHEK2: N2 convergence failed.
 x:  0.13471  0.20291  0.20291  N:    NaN  9.000    NaN  Nx:     NaN   dN:       NaN
 TRCHEK2: N2 convergence failed.
 x:  0.13471  0.20291  0.20291  N:    NaN  9.000    NaN  Nx:     NaN   dN:       NaN
 TRCHEK2: N2 convergence failed.
 x:  0.13471  0.20291  0.20291  N:    NaN  9.000    NaN  Nx:     NaN   dN:       NaN
 TRCHEK2: N2 convergence failed.
 x:  0.13471  0.20291  0.20291  N:    NaN  9.000    NaN  Nx:     NaN   dN:       NaN
 TRCHEK2: N2 convergence failed.
 x:  0.13471  0.20291  0.20291  N:    NaN  9.000    NaN  Nx:     NaN   dN:       NaN
 TRCHEK2: N2 convergence failed.
 x:  0.13471  0.20291  0.20291  N:    NaN  9.000    NaN  Nx:     NaN   dN:       NaN
 TRCHEK2: N2 convergence failed.
 x:  0.13471  0.20291  0.20291  N:    NaN  9.000    NaN  Nx:     NaN   dN:       NaN
 TRCHEK2: N2 convergence failed.
 x:  0.13471  0.20291  0.20291  N:    NaN  9.000    NaN  Nx:     NaN   dN:       NaN
 TRCHEK2: N2 convergence failed.
 x:  0.13471  0.20291  0.20291  N:    NaN  9.000    NaN  Nx:     NaN   dN:       NaN
 TRCHEK2: N2 convergence failed.
 x:  0.13471  0.20291  0.20291  N:    NaN  9.000    NaN  Nx:     NaN   dN:       NaN
 TRCHEK2: N2 convergence failed.
 x:  0.13471  0.20291  0.20291  N:    NaN  9.000    NaN  Nx:     NaN   dN:       NaN
 TRCHEK2: N2 convergence failed.
 x:  0.13471  0.20291  0.20291  N:    NaN  9.000    NaN  Nx:     NaN   dN:       NaN
 TRCHEK2: N2 convergence failed.
 x:  0.13471  0.20291  0.20291  N:    NaN  9.000    NaN  Nx:     NaN   dN:       NaN
 TRCHEK2: N2 convergence failed.
 x:  0.13471  0.20291  0.20291  N:    NaN  9.000    NaN  Nx:     NaN   dN:       NaN
 TRCHEK2: N2 convergence failed.
 x:  0.13471  0.20291  0.20291  N:    NaN  9.000    NaN  Nx:     NaN   dN:       NaN
 TRCHEK2: N2 convergence failed.
 x:  0.13471  0.20291  0.20291  N:    NaN  9.000    NaN  Nx:     NaN   dN:       NaN
 TRCHEK2: N2 convergence failed.
 x:  0.13471  0.20291  0.20291  N:    NaN  9.000    NaN  Nx:     NaN   dN:       NaN
 TRCHEK2: N2 convergence failed.
 x:  0.13471  0.20291  0.20291  N:    NaN  9.000    NaN  Nx:     NaN   dN:       NaN
 MRCHUE: Convergence failed at   9  side 2    Res =         NaN
 TRCHEK2: N2 convergence failed.
 x:  0.13471  0.20291  0.20291  N:    NaN  9.000    NaN  Nx:     NaN   dN:       NaN
 TRCHEK2: N2 convergence failed.
 x:  0.20291  0.27123  0.27123  N:    NaN  9.000    NaN  Nx:     NaN   dN:       NaN
 MRCHUE: Inverse mode at  10     Hk =   3.800
 TRCHEK2: N2 convergence failed.
 x:  0.20291  0.27123  0.27123  N:    NaN  9.000    NaN  Nx:     NaN   dN:       NaN
 TRCHEK2: N2 convergence failed.
 x:  0.20291  0.27123  0.27123  N:    NaN  9.000    NaN  Nx:     NaN   dN:       NaN
 TRCHEK2: N2 convergence failed.
 x:  0.20291  0.27123  0.27123  N:    NaN  9.000    NaN  Nx:     NaN   dN:       NaN
 TRCHEK2: N2 convergence failed.
 x:  0.20291  0.27123  0.27123  N:    NaN  9.000    NaN  Nx:     NaN   dN:       NaN
 TRCHEK2: N2 convergence failed.
 x:  0.20291  0.27123  0.27123  N:    NaN  9.000    NaN  Nx:     NaN   dN:       NaN
 TRCHEK2: N2 convergence failed.
 x:  0.20291  0.27123  0.27123  N:    NaN  9.000    NaN  Nx:     NaN   dN:       NaN
 TRCHEK2: N2 convergence failed.
 x:  0.20291  0.27123  0.27123  N:    NaN  9.000    NaN  Nx:     NaN   dN:       NaN
 TRCHEK2: N2 convergence failed.
 x:  0.20291  0.27123  0.27123  N:    NaN  9.000    NaN  Nx:     NaN   dN:       NaN
 TRCHEK2: N2 convergence failed.
 x:  0.20291  0.27123  0.27123  N:    NaN  9.000    NaN  Nx:     NaN   dN:       NaN
 TRCHEK2: N2 convergence failed.
 x:  0.20291  0.27123  0.27123  N:    NaN  9.000    NaN  Nx:     NaN   dN:       NaN
 TRCHEK2: N2 convergence failed.
 x:  0.20291  0.27123  0.27123  N:    NaN  9.000    NaN  Nx:     NaN   dN:       NaN
 TRCHEK2: N2 convergence failed.
 x:  0.20291  0.27123  0.27123  N:    NaN  9.000    NaN  Nx:     NaN   dN:       NaN
 TRCHEK2: N2 convergence failed.
 x:  0.20291  0.27123  0.27123  N:    NaN  9.000    NaN  Nx:     NaN   dN:       NaN
 TRCHEK2: N2 convergence failed.
 x:  0.20291  0.27123  0.27123  N:    NaN  9.000    NaN  Nx:     NaN   dN:       NaN
 TRCHEK2: N2 convergence failed.
 x:  0.20291  0.27123  0.27123  N:    NaN  9.000    NaN  Nx:     NaN   dN:       NaN
 TRCHEK2: N2 convergence failed.
 x:  0.20291  0.27123  0.27123  N:    NaN  9.000    NaN  Nx:     NaN   dN:       NaN
 TRCHEK2: N2 convergence failed.
 x:  0.20291  0.27123  0.27123  N:    NaN  9.000    NaN  Nx:     NaN   dN:       NaN
 TRCHEK2: N2 convergence failed.
 x:  0.20291  0.27123  0.27123  N:    NaN  9.000    NaN  Nx:     NaN   dN:       NaN
 TRCHEK2: N2 convergence failed.
 x:  0.20291  0.27123  0.27123  N:    NaN  9.000    NaN  Nx:     NaN   dN:       NaN
 TRCHEK2: N2 convergence failed.
 x:  0.20291  0.27123  0.27123  N:    NaN  9.000    NaN  Nx:     NaN   dN:       NaN
 TRCHEK2: N2 convergence failed.
 x:  0.20291  0.27123  0.27123  N:    NaN  9.000    NaN  Nx:     NaN   dN:       NaN
 TRCHEK2: N2 convergence failed.
 x:  0.20291  0.27123  0.27123  N:    NaN  9.000    NaN  Nx:     NaN   dN:       NaN
 TRCHEK2: N2 convergence failed.
 x:  0.20291  0.27123  0.27123  N:    NaN  9.000    NaN  Nx:     NaN   dN:       NaN
 TRCHEK2: N2 convergence failed.
 x:  0.20291  0.27123  0.27123  N:    NaN  9.000    NaN  Nx:     NaN   dN:       NaN
 MRCHUE: Convergence failed at  10  side 2    Res =         NaN
 TRCHEK2: N2 convergence failed.
 x:  0.20291  0.27123  0.27123  N:    NaN  9.000    NaN  Nx:     NaN   dN:       NaN
 TRCHEK2: N2 convergence failed.
 x:  0.27123  0.33939  0.33939  N:    NaN  9.000    NaN  Nx:     NaN   dN:       NaN
 MRCHUE: Inverse mode at  11     Hk =   3.800
 TRCHEK2: N2 convergence failed.
 x:  0.27123  0.33939  0.33939  N:    NaN  9.000    NaN  Nx:     NaN   dN:       NaN
 TRCHEK2: N2 convergence failed.
 x:  0.27123  0.33939  0.33939  N:    NaN  9.000    NaN  Nx:     NaN   dN:       NaN
 TRCHEK2: N2 convergence failed.
 x:  0.27123  0.33939  0.33939  N:    NaN  9.000    NaN  Nx:     NaN   dN:       NaN
 TRCHEK2: N2 convergence failed.
 x:  0.27123  0.33939  0.33939  N:    NaN  9.000    NaN  Nx:     NaN   dN:       NaN
 TRCHEK2: N2 convergence failed.
 x:  0.27123  0.33939  0.33939  N:    NaN  9.000    NaN  Nx:     NaN   dN:       NaN
 TRCHEK2: N2 convergence failed.
 x:  0.27123  0.33939  0.33939  N:    NaN  9.000    NaN  Nx:     NaN   dN:       NaN
 TRCHEK2: N2 convergence failed.
 x:  0.27123  0.33939  0.33939  N:    NaN  9.000    NaN  Nx:     NaN   dN:       NaN
 TRCHEK2: N2 convergence failed.
 x:  0.27123  0.33939  0.33939  N:    NaN  9.000    NaN  Nx:     NaN   dN:       NaN
 TRCHEK2: N2 convergence failed.
 x:  0.27123  0.33939  0.33939  N:    NaN  9.000    NaN  Nx:     NaN   dN:       NaN
 TRCHEK2: N2 convergence failed.
 x:  0.27123  0.33939  0.33939  N:    NaN  9.000    NaN  Nx:     NaN   dN:       NaN
 TRCHEK2: N2 convergence failed.
 x:  0.27123  0.33939  0.33939  N:    NaN  9.000    NaN  Nx:     NaN   dN:       NaN
 TRCHEK2: N2 convergence failed.
 x:  0.27123  0.33939  0.33939  N:    NaN  9.000    NaN  Nx:     NaN   dN:       NaN
 TRCHEK2: N2 convergence failed.
 x:  0.27123  0.33939  0.33939  N:    NaN  9.000    NaN  Nx:     NaN   dN:       NaN
 TRCHEK2: N2 convergence failed.
 x:  0.27123  0.33939  0.33939  N:    NaN  9.000    NaN  Nx:     NaN   dN:       NaN
 TRCHEK2: N2 convergence failed.
 x:  0.27123  0.33939  0.33939  N:    NaN  9.000    NaN  Nx:     NaN   dN:       NaN
 TRCHEK2: N2 convergence failed.
 x:  0.27123  0.33939  0.33939  N:    NaN  9.000    NaN  Nx:     NaN   dN:       NaN
 TRCHEK2: N2 convergence failed.
 x:  0.27123  0.33939  0.33939  N:    NaN  9.000    NaN  Nx:     NaN   dN:       NaN
 TRCHEK2: N2 convergence failed.
 x:  0.27123  0.33939  0.33939  N:    NaN  9.000    NaN  Nx:     NaN   dN:       NaN
 TRCHEK2: N2 convergence failed.
 x:  0.27123  0.33939  0.33939  N:    NaN  9.000    NaN  Nx:     NaN   dN:       NaN
 TRCHEK2: N2 convergence failed.
 x:  0.27123  0.33939  0.33939  N:    NaN  9.000    NaN  Nx:     NaN   dN:       NaN
 TRCHEK2: N2 convergence failed.
 x:  0.27123  0.33939  0.33939  N:    NaN  9.000    NaN  Nx:     NaN   dN:       NaN
 TRCHEK2: N2 convergence failed.
 x:  0.27123  0.33939  0.33939  N:    NaN  9.000    NaN  Nx:     NaN   dN:       NaN
 TRCHEK2: N2 convergence failed.
 x:  0.27123  0.33939  0.33939  N:    NaN  9.000    NaN  Nx:     NaN   dN:       NaN
 TRCHEK2: N2 convergence failed.
 x:  0.27123  0.33939  0.33939  N:    NaN  9.000    NaN  Nx:     NaN   dN:       NaN
 MRCHUE: Convergence failed at  11  side 2    Res =         NaN
 TRCHEK2: N2 convergence failed.
 x:  0.27123  0.33939  0.33939  N:    NaN  9.000    NaN  Nx:     NaN   dN:       NaN
 TRCHEK2: N2 convergence failed.
 x:  0.33939  0.40721  0.40721  N:    NaN  9.000    NaN  Nx:     NaN   dN:       NaN
 MRCHUE: Inverse mode at  12     Hk =   3.800
 TRCHEK2: N2 convergence failed.
 x:  0.33939  0.40721  0.40721  N:    NaN  9.000    NaN  Nx:     NaN   dN:       NaN
 TRCHEK2: N2 convergence failed.
 x:  0.33939  0.40721  0.40721  N:    NaN  9.000    NaN  Nx:     NaN   dN:       NaN
 TRCHEK2: N2 convergence failed.
 x:  0.33939  0.40721  0.40721  N:    NaN  9.000    NaN  Nx:     NaN   dN:       NaN
 TRCHEK2: N2 convergence failed.
 x:  0.33939  0.40721  0.40721  N:    NaN  9.000    NaN  Nx:     NaN   dN:       NaN
 TRCHEK2: N2 convergence failed.
 x:  0.33939  0.40721  0.40721  N:    NaN  9.000    NaN  Nx:     NaN   dN:       NaN
 TRCHEK2: N2 convergence failed.
 x:  0.33939  0.40721  0.40721  N:    NaN  9.000    NaN  Nx:     NaN   dN:       NaN
 TRCHEK2: N2 convergence failed.
 x:  0.33939  0.40721  0.40721  N:    NaN  9.000    NaN  Nx:     NaN   dN:       NaN
 TRCHEK2: N2 convergence failed.
 x:  0.33939  0.40721  0.40721  N:    NaN  9.000    NaN  Nx:     NaN   dN:       NaN
 TRCHEK2: N2 convergence failed.
 x:  0.33939  0.40721  0.40721  N:    NaN  9.000    NaN  Nx:     NaN   dN:       NaN
 TRCHEK2: N2 convergence failed.
 x:  0.33939  0.40721  0.40721  N:    NaN  9.000    NaN  Nx:     NaN   dN:       NaN
 TRCHEK2: N2 convergence failed.
 x:  0.33939  0.40721  0.40721  N:    NaN  9.000    NaN  Nx:     NaN   dN:       NaN
 TRCHEK2: N2 convergence failed.
 x:  0.33939  0.40721  0.40721  N:    NaN  9.000    NaN  Nx:     NaN   dN:       NaN
 TRCHEK2: N2 convergence failed.
 x:  0.33939  0.40721  0.40721  N:    NaN  9.000    NaN  Nx:     NaN   dN:       NaN
 TRCHEK2: N2 convergence failed.
 x:  0.33939  0.40721  0.40721  N:    NaN  9.000    NaN  Nx:     NaN   dN:       NaN
 TRCHEK2: N2 convergence failed.
 x:  0.33939  0.40721  0.40721  N:    NaN  9.000    NaN  Nx:     NaN   dN:       NaN
 TRCHEK2: N2 convergence failed.
 x:  0.33939  0.40721  0.40721  N:    NaN  9.000    NaN  Nx:     NaN   dN:       NaN
 TRCHEK2: N2 convergence failed.
 x:  0.33939  0.40721  0.40721  N:    NaN  9.000    NaN  Nx:     NaN   dN:       NaN
 TRCHEK2: N2 convergence failed.
 x:  0.33939  0.40721  0.40721  N:    NaN  9.000    NaN  Nx:     NaN   dN:       NaN
 TRCHEK2: N2 convergence failed.
 x:  0.33939  0.40721  0.40721  N:    NaN  9.000    NaN  Nx:     NaN   dN:       NaN
 TRCHEK2: N2 convergence failed.
 x:  0.33939  0.40721  0.40721  N:    NaN  9.000    NaN  Nx:     NaN   dN:       NaN
 TRCHEK2: N2 convergence failed.
 x:  0.33939  0.40721  0.40721  N:    NaN  9.000    NaN  Nx:     NaN   dN:       NaN
 TRCHEK2: N2 convergence failed.
 x:  0.33939  0.40721  0.40721  N:    NaN  9.000    NaN  Nx:     NaN   dN:       NaN
 TRCHEK2: N2 convergence failed.
 x:  0.33939  0.40721  0.40721  N:    NaN  9.000    NaN  Nx:     NaN   dN:       NaN
 TRCHEK2: N2 convergence failed.
 x:  0.33939  0.40721  0.40721  N:    NaN  9.000    NaN  Nx:     NaN   dN:       NaN
 MRCHUE: Convergence failed at  12  side 2    Res =         NaN
 TRCHEK2: N2 convergence failed.
 x:  0.33939  0.40721  0.40721  N:    NaN  9.000    NaN  Nx:     NaN   dN:       NaN
 TRCHEK2: N2 convergence failed.
 x:  0.40721  0.47461  0.47461  N:    NaN  9.000    NaN  Nx:     NaN   dN:       NaN
 MRCHUE: Inverse mode at  13     Hk =   3.800
 TRCHEK2: N2 convergence failed.
 x:  0.40721  0.47461  0.47461  N:    NaN  9.000    NaN  Nx:     NaN   dN:       NaN
 TRCHEK2: N2 convergence failed.
 x:  0.40721  0.47461  0.47461  N:    NaN  9.000    NaN  Nx:     NaN   dN:       NaN
 TRCHEK2: N2 convergence failed.
 x:  0.40721  0.47461  0.47461  N:    NaN  9.000    NaN  Nx:     NaN   dN:       NaN
 TRCHEK2: N2 convergence failed.
 x:  0.40721  0.47461  0.47461  N:    NaN  9.000    NaN  Nx:     NaN   dN:       NaN
 TRCHEK2: N2 convergence failed.
 x:  0.40721  0.47461  0.47461  N:    NaN  9.000    NaN  Nx:     NaN   dN:       NaN
 TRCHEK2: N2 convergence failed.
 x:  0.40721  0.47461  0.47461  N:    NaN  9.000    NaN  Nx:     NaN   dN:       NaN
 TRCHEK2: N2 convergence failed.
 x:  0.40721  0.47461  0.47461  N:    NaN  9.000    NaN  Nx:     NaN   dN:       NaN
 TRCHEK2: N2 convergence failed.
 x:  0.40721  0.47461  0.47461  N:    NaN  9.000    NaN  Nx:     NaN   dN:       NaN
 TRCHEK2: N2 convergence failed.
 x:  0.40721  0.47461  0.47461  N:    NaN  9.000    NaN  Nx:     NaN   dN:       NaN
 TRCHEK2: N2 convergence failed.
 x:  0.40721  0.47461  0.47461  N:    NaN  9.000    NaN  Nx:     NaN   dN:       NaN
 TRCHEK2: N2 convergence failed.
 x:  0.40721  0.47461  0.47461  N:    NaN  9.000    NaN  Nx:     NaN   dN:       NaN
 TRCHEK2: N2 convergence failed.
 x:  0.40721  0.47461  0.47461  N:    NaN  9.000    NaN  Nx:     NaN   dN:       NaN
 TRCHEK2: N2 convergence failed.
 x:  0.40721  0.47461  0.47461  N:    NaN  9.000    NaN  Nx:     NaN   dN:       NaN
 TRCHEK2: N2 convergence failed.
 x:  0.40721  0.47461  0.47461  N:    NaN  9.000    NaN  Nx:     NaN   dN:       NaN
 TRCHEK2: N2 convergence failed.
 x:  0.40721  0.47461  0.47461  N:    NaN  9.000    NaN  Nx:     NaN   dN:       NaN
 TRCHEK2: N2 convergence failed.
 x:  0.40721  0.47461  0.47461  N:    NaN  9.000    NaN  Nx:     NaN   dN:       NaN
 TRCHEK2: N2 convergence failed.
 x:  0.40721  0.47461  0.47461  N:    NaN  9.000    NaN  Nx:     NaN   dN:       NaN
 TRCHEK2: N2 convergence failed.
 x:  0.40721  0.47461  0.47461  N:    NaN  9.000    NaN  Nx:     NaN   dN:       NaN
 TRCHEK2: N2 convergence failed.
 x:  0.40721  0.47461  0.47461  N:    NaN  9.000    NaN  Nx:     NaN   dN:       NaN
 TRCHEK2: N2 convergence failed.
 x:  0.40721  0.47461  0.47461  N:    NaN  9.000    NaN  Nx:     NaN   dN:       NaN
 TRCHEK2: N2 convergence failed.
 x:  0.40721  0.47461  0.47461  N:    NaN  9.000    NaN  Nx:     NaN   dN:       NaN
 TRCHEK2: N2 convergence failed.
 x:  0.40721  0.47461  0.47461  N:    NaN  9.000    NaN  Nx:     NaN   dN:       NaN
 TRCHEK2: N2 convergence failed.
 x:  0.40721  0.47461  0.47461  N:    NaN  9.000    NaN  Nx:     NaN   dN:       NaN
 TRCHEK2: N2 convergence failed.
 x:  0.40721  0.47461  0.47461  N:    NaN  9.000    NaN  Nx:     NaN   dN:       NaN
 MRCHUE: Convergence failed at  13  side 2    Res =         NaN
 TRCHEK2: N2 convergence failed.
 x:  0.40721  0.47461  0.47461  N:    NaN  9.000    NaN  Nx:     NaN   dN:       NaN
 TRCHEK2: N2 convergence failed.
 x:  0.47461  0.54160  0.54160  N:    NaN  9.000    NaN  Nx:     NaN   dN:       NaN
 MRCHUE: Inverse mode at  14     Hk =   3.800
 TRCHEK2: N2 convergence failed.
 x:  0.47461  0.54160  0.54160  N:    NaN  9.000    NaN  Nx:     NaN   dN:       NaN
 TRCHEK2: N2 convergence failed.
 x:  0.47461  0.54160  0.54160  N:    NaN  9.000    NaN  Nx:     NaN   dN:       NaN
 TRCHEK2: N2 convergence failed.
 x:  0.47461  0.54160  0.54160  N:    NaN  9.000    NaN  Nx:     NaN   dN:       NaN
 TRCHEK2: N2 convergence failed.
 x:  0.47461  0.54160  0.54160  N:    NaN  9.000    NaN  Nx:     NaN   dN:       NaN
 TRCHEK2: N2 convergence failed.
 x:  0.47461  0.54160  0.54160  N:    NaN  9.000    NaN  Nx:     NaN   dN:       NaN
 TRCHEK2: N2 convergence failed.
 x:  0.47461  0.54160  0.54160  N:    NaN  9.000    NaN  Nx:     NaN   dN:       NaN
 TRCHEK2: N2 convergence failed.
 x:  0.47461  0.54160  0.54160  N:    NaN  9.000    NaN  Nx:     NaN   dN:       NaN
 TRCHEK2: N2 convergence failed.
 x:  0.47461  0.54160  0.54160  N:    NaN  9.000    NaN  Nx:     NaN   dN:       NaN
 TRCHEK2: N2 convergence failed.
 x:  0.47461  0.54160  0.54160  N:    NaN  9.000    NaN  Nx:     NaN   dN:       NaN
 TRCHEK2: N2 convergence failed.
 x:  0.47461  0.54160  0.54160  N:    NaN  9.000    NaN  Nx:     NaN   dN:       NaN
 TRCHEK2: N2 convergence failed.
 x:  0.47461  0.54160  0.54160  N:    NaN  9.000    NaN  Nx:     NaN   dN:       NaN
 TRCHEK2: N2 convergence failed.
 x:  0.47461  0.54160  0.54160  N:    NaN  9.000    NaN  Nx:     NaN   dN:       NaN
 TRCHEK2: N2 convergence failed.
 x:  0.47461  0.54160  0.54160  N:    NaN  9.000    NaN  Nx:     NaN   dN:       NaN
 TRCHEK2: N2 convergence failed.
 x:  0.47461  0.54160  0.54160  N:    NaN  9.000    NaN  Nx:     NaN   dN:       NaN
 TRCHEK2: N2 convergence failed.
 x:  0.47461  0.54160  0.54160  N:    NaN  9.000    NaN  Nx:     NaN   dN:       NaN
 TRCHEK2: N2 convergence failed.
 x:  0.47461  0.54160  0.54160  N:    NaN  9.000    NaN  Nx:     NaN   dN:       NaN
 TRCHEK2: N2 convergence failed.
 x:  0.47461  0.54160  0.54160  N:    NaN  9.000    NaN  Nx:     NaN   dN:       NaN
 TRCHEK2: N2 convergence failed.
 x:  0.47461  0.54160  0.54160  N:    NaN  9.000    NaN  Nx:     NaN   dN:       NaN
 TRCHEK2: N2 convergence failed.
 x:  0.47461  0.54160  0.54160  N:    NaN  9.000    NaN  Nx:     NaN   dN:       NaN
 TRCHEK2: N2 convergence failed.
 x:  0.47461  0.54160  0.54160  N:    NaN  9.000    NaN  Nx:     NaN   dN:       NaN
 TRCHEK2: N2 convergence failed.
 x:  0.47461  0.54160  0.54160  N:    NaN  9.000    NaN  Nx:     NaN   dN:       NaN
 TRCHEK2: N2 convergence failed.
 x:  0.47461  0.54160  0.54160  N:    NaN  9.000    NaN  Nx:     NaN   dN:       NaN
 TRCHEK2: N2 convergence failed.
 x:  0.47461  0.54160  0.54160  N:    NaN  9.000    NaN  Nx:     NaN   dN:       NaN
 TRCHEK2: N2 convergence failed.
 x:  0.47461  0.54160  0.54160  N:    NaN  9.000    NaN  Nx:     NaN   dN:       NaN
 MRCHUE: Convergence failed at  14  side 2    Res =         NaN
 TRCHEK2: N2 convergence failed.
 x:  0.47461  0.54160  0.54160  N:    NaN  9.000    NaN  Nx:     NaN   dN:       NaN
 TRCHEK2: N2 convergence failed.
 x:  0.54160  0.60829  0.60829  N:    NaN  9.000    NaN  Nx:     NaN   dN:       NaN
 MRCHUE: Inverse mode at  15     Hk =   3.800
 TRCHEK2: N2 convergence failed.
 x:  0.54160  0.60829  0.60829  N:    NaN  9.000    NaN  Nx:     NaN   dN:       NaN
 TRCHEK2: N2 convergence failed.
 x:  0.54160  0.60829  0.60829  N:    NaN  9.000    NaN  Nx:     NaN   dN:       NaN
 TRCHEK2: N2 convergence failed.
 x:  0.54160  0.60829  0.60829  N:    NaN  9.000    NaN  Nx:     NaN   dN:       NaN
 TRCHEK2: N2 convergence failed.
 x:  0.54160  0.60829  0.60829  N:    NaN  9.000    NaN  Nx:     NaN   dN:       NaN
 TRCHEK2: N2 convergence failed.
 x:  0.54160  0.60829  0.60829  N:    NaN  9.000    NaN  Nx:     NaN   dN:       NaN
 TRCHEK2: N2 convergence failed.
 x:  0.54160  0.60829  0.60829  N:    NaN  9.000    NaN  Nx:     NaN   dN:       NaN
 TRCHEK2: N2 convergence failed.
 x:  0.54160  0.60829  0.60829  N:    NaN  9.000    NaN  Nx:     NaN   dN:       NaN
 TRCHEK2: N2 convergence failed.
 x:  0.54160  0.60829  0.60829  N:    NaN  9.000    NaN  Nx:     NaN   dN:       NaN
 TRCHEK2: N2 convergence failed.
 x:  0.54160  0.60829  0.60829  N:    NaN  9.000    NaN  Nx:     NaN   dN:       NaN
 TRCHEK2: N2 convergence failed.
 x:  0.54160  0.60829  0.60829  N:    NaN  9.000    NaN  Nx:     NaN   dN:       NaN
 TRCHEK2: N2 convergence failed.
 x:  0.54160  0.60829  0.60829  N:    NaN  9.000    NaN  Nx:     NaN   dN:       NaN
 TRCHEK2: N2 convergence failed.
 x:  0.54160  0.60829  0.60829  N:    NaN  9.000    NaN  Nx:     NaN   dN:       NaN
 TRCHEK2: N2 convergence failed.
 x:  0.54160  0.60829  0.60829  N:    NaN  9.000    NaN  Nx:     NaN   dN:       NaN
 TRCHEK2: N2 convergence failed.
 x:  0.54160  0.60829  0.60829  N:    NaN  9.000    NaN  Nx:     NaN   dN:       NaN
 TRCHEK2: N2 convergence failed.
 x:  0.54160  0.60829  0.60829  N:    NaN  9.000    NaN  Nx:     NaN   dN:       NaN
 TRCHEK2: N2 convergence failed.
 x:  0.54160  0.60829  0.60829  N:    NaN  9.000    NaN  Nx:     NaN   dN:       NaN
 TRCHEK2: N2 convergence failed.
 x:  0.54160  0.60829  0.60829  N:    NaN  9.000    NaN  Nx:     NaN   dN:       NaN
 TRCHEK2: N2 convergence failed.
 x:  0.54160  0.60829  0.60829  N:    NaN  9.000    NaN  Nx:     NaN   dN:       NaN
 TRCHEK2: N2 convergence failed.
 x:  0.54160  0.60829  0.60829  N:    NaN  9.000    NaN  Nx:     NaN   dN:       NaN
 TRCHEK2: N2 convergence failed.
 x:  0.54160  0.60829  0.60829  N:    NaN  9.000    NaN  Nx:     NaN   dN:       NaN
 TRCHEK2: N2 convergence failed.
 x:  0.54160  0.60829  0.60829  N:    NaN  9.000    NaN  Nx:     NaN   dN:       NaN
 TRCHEK2: N2 convergence failed.
 x:  0.54160  0.60829  0.60829  N:    NaN  9.000    NaN  Nx:     NaN   dN:       NaN
 TRCHEK2: N2 convergence failed.
 x:  0.54160  0.60829  0.60829  N:    NaN  9.000    NaN  Nx:     NaN   dN:       NaN
 TRCHEK2: N2 convergence failed.
 x:  0.54160  0.60829  0.60829  N:    NaN  9.000    NaN  Nx:     NaN   dN:       NaN
 MRCHUE: Convergence failed at  15  side 2    Res =         NaN
 TRCHEK2: N2 convergence failed.
 x:  0.54160  0.60829  0.60829  N:    NaN  9.000    NaN  Nx:     NaN   dN:       NaN
 TRCHEK2: N2 convergence failed.
 x:  0.60829  0.67485  0.67485  N:    NaN  9.000    NaN  Nx:     NaN   dN:       NaN
 MRCHUE: Inverse mode at  16     Hk =   3.800
 TRCHEK2: N2 convergence failed.
 x:  0.60829  0.67485  0.67485  N:    NaN  9.000    NaN  Nx:     NaN   dN:       NaN
 TRCHEK2: N2 convergence failed.
 x:  0.60829  0.67485  0.67485  N:    NaN  9.000    NaN  Nx:     NaN   dN:       NaN
 TRCHEK2: N2 convergence failed.
 x:  0.60829  0.67485  0.67485  N:    NaN  9.000    NaN  Nx:     NaN   dN:       NaN
 TRCHEK2: N2 convergence failed.
 x:  0.60829  0.67485  0.67485  N:    NaN  9.000    NaN  Nx:     NaN   dN:       NaN
 TRCHEK2: N2 convergence failed.
 x:  0.60829  0.67485  0.67485  N:    NaN  9.000    NaN  Nx:     NaN   dN:       NaN
 TRCHEK2: N2 convergence failed.
 x:  0.60829  0.67485  0.67485  N:    NaN  9.000    NaN  Nx:     NaN   dN:       NaN
 TRCHEK2: N2 convergence failed.
 x:  0.60829  0.67485  0.67485  N:    NaN  9.000    NaN  Nx:     NaN   dN:       NaN
 TRCHEK2: N2 convergence failed.
 x:  0.60829  0.67485  0.67485  N:    NaN  9.000    NaN  Nx:     NaN   dN:       NaN
 TRCHEK2: N2 convergence failed.
 x:  0.60829  0.67485  0.67485  N:    NaN  9.000    NaN  Nx:     NaN   dN:       NaN
 TRCHEK2: N2 convergence failed.
 x:  0.60829  0.67485  0.67485  N:    NaN  9.000    NaN  Nx:     NaN   dN:       NaN
 TRCHEK2: N2 convergence failed.
 x:  0.60829  0.67485  0.67485  N:    NaN  9.000    NaN  Nx:     NaN   dN:       NaN
 TRCHEK2: N2 convergence failed.
 x:  0.60829  0.67485  0.67485  N:    NaN  9.000    NaN  Nx:     NaN   dN:       NaN
 TRCHEK2: N2 convergence failed.
 x:  0.60829  0.67485  0.67485  N:    NaN  9.000    NaN  Nx:     NaN   dN:       NaN
 TRCHEK2: N2 convergence failed.
 x:  0.60829  0.67485  0.67485  N:    NaN  9.000    NaN  Nx:     NaN   dN:       NaN
 TRCHEK2: N2 convergence failed.
 x:  0.60829  0.67485  0.67485  N:    NaN  9.000    NaN  Nx:     NaN   dN:       NaN
 TRCHEK2: N2 convergence failed.
 x:  0.60829  0.67485  0.67485  N:    NaN  9.000    NaN  Nx:     NaN   dN:       NaN
 TRCHEK2: N2 convergence failed.
 x:  0.60829  0.67485  0.67485  N:    NaN  9.000    NaN  Nx:     NaN   dN:       NaN
 TRCHEK2: N2 convergence failed.
 x:  0.60829  0.67485  0.67485  N:    NaN  9.000    NaN  Nx:     NaN   dN:       NaN
 TRCHEK2: N2 convergence failed.
 x:  0.60829  0.67485  0.67485  N:    NaN  9.000    NaN  Nx:     NaN   dN:       NaN
 TRCHEK2: N2 convergence failed.
 x:  0.60829  0.67485  0.67485  N:    NaN  9.000    NaN  Nx:     NaN   dN:       NaN
 TRCHEK2: N2 convergence failed.
 x:  0.60829  0.67485  0.67485  N:    NaN  9.000    NaN  Nx:     NaN   dN:       NaN
 TRCHEK2: N2 convergence failed.
 x:  0.60829  0.67485  0.67485  N:    NaN  9.000    NaN  Nx:     NaN   dN:       NaN
 TRCHEK2: N2 convergence failed.
 x:  0.60829  0.67485  0.67485  N:    NaN  9.000    NaN  Nx:     NaN   dN:       NaN
 TRCHEK2: N2 convergence failed.
 x:  0.60829  0.67485  0.67485  N:    NaN  9.000    NaN  Nx:     NaN   dN:       NaN
 MRCHUE: Convergence failed at  16  side 2    Res =         NaN
 TRCHEK2: N2 convergence failed.
 x:  0.60829  0.67485  0.67485  N:    NaN  9.000    NaN  Nx:     NaN   dN:       NaN
 TRCHEK2: N2 convergence failed.
 x:  0.67485  0.74151  0.74151  N:    NaN  9.000    NaN  Nx:     NaN   dN:       NaN
 MRCHUE: Inverse mode at  17     Hk =   3.800
 TRCHEK2: N2 convergence failed.
 x:  0.67485  0.74151  0.74151  N:    NaN  9.000    NaN  Nx:     NaN   dN:       NaN
 TRCHEK2: N2 convergence failed.
 x:  0.67485  0.74151  0.74151  N:    NaN  9.000    NaN  Nx:     NaN   dN:       NaN
 TRCHEK2: N2 convergence failed.
 x:  0.67485  0.74151  0.74151  N:    NaN  9.000    NaN  Nx:     NaN   dN:       NaN
 TRCHEK2: N2 convergence failed.
 x:  0.67485  0.74151  0.74151  N:    NaN  9.000    NaN  Nx:     NaN   dN:       NaN
 TRCHEK2: N2 convergence failed.
 x:  0.67485  0.74151  0.74151  N:    NaN  9.000    NaN  Nx:     NaN   dN:       NaN
 TRCHEK2: N2 convergence failed.
 x:  0.67485  0.74151  0.74151  N:    NaN  9.000    NaN  Nx:     NaN   dN:       NaN
 TRCHEK2: N2 convergence failed.
 x:  0.67485  0.74151  0.74151  N:    NaN  9.000    NaN  Nx:     NaN   dN:       NaN
 TRCHEK2: N2 convergence failed.
 x:  0.67485  0.74151  0.74151  N:    NaN  9.000    NaN  Nx:     NaN   dN:       NaN
 TRCHEK2: N2 convergence failed.
 x:  0.67485  0.74151  0.74151  N:    NaN  9.000    NaN  Nx:     NaN   dN:       NaN
 TRCHEK2: N2 convergence failed.
 x:  0.67485  0.74151  0.74151  N:    NaN  9.000    NaN  Nx:     NaN   dN:       NaN
 TRCHEK2: N2 convergence failed.
 x:  0.67485  0.74151  0.74151  N:    NaN  9.000    NaN  Nx:     NaN   dN:       NaN
 TRCHEK2: N2 convergence failed.
 x:  0.67485  0.74151  0.74151  N:    NaN  9.000    NaN  Nx:     NaN   dN:       NaN
 TRCHEK2: N2 convergence failed.
 x:  0.67485  0.74151  0.74151  N:    NaN  9.000    NaN  Nx:     NaN   dN:       NaN
 TRCHEK2: N2 convergence failed.
 x:  0.67485  0.74151  0.74151  N:    NaN  9.000    NaN  Nx:     NaN   dN:       NaN
 TRCHEK2: N2 convergence failed.
 x:  0.67485  0.74151  0.74151  N:    NaN  9.000    NaN  Nx:     NaN   dN:       NaN
 TRCHEK2: N2 convergence failed.
 x:  0.67485  0.74151  0.74151  N:    NaN  9.000    NaN  Nx:     NaN   dN:       NaN
 TRCHEK2: N2 convergence failed.
 x:  0.67485  0.74151  0.74151  N:    NaN  9.000    NaN  Nx:     NaN   dN:       NaN
 TRCHEK2: N2 convergence failed.
 x:  0.67485  0.74151  0.74151  N:    NaN  9.000    NaN  Nx:     NaN   dN:       NaN
 TRCHEK2: N2 convergence failed.
 x:  0.67485  0.74151  0.74151  N:    NaN  9.000    NaN  Nx:     NaN   dN:       NaN
 TRCHEK2: N2 convergence failed.
 x:  0.67485  0.74151  0.74151  N:    NaN  9.000    NaN  Nx:     NaN   dN:       NaN
 TRCHEK2: N2 convergence failed.
 x:  0.67485  0.74151  0.74151  N:    NaN  9.000    NaN  Nx:     NaN   dN:       NaN
 TRCHEK2: N2 convergence failed.
 x:  0.67485  0.74151  0.74151  N:    NaN  9.000    NaN  Nx:     NaN   dN:       NaN
 TRCHEK2: N2 convergence failed.
 x:  0.67485  0.74151  0.74151  N:    NaN  9.000    NaN  Nx:     NaN   dN:       NaN
 TRCHEK2: N2 convergence failed.
 x:  0.67485  0.74151  0.74151  N:    NaN  9.000    NaN  Nx:     NaN   dN:       NaN
 MRCHUE: Convergence failed at  17  side 2    Res =         NaN
 TRCHEK2: N2 convergence failed.
 x:  0.67485  0.74151  0.74151  N:    NaN  9.000    NaN  Nx:     NaN   dN:       NaN
 TRCHEK2: N2 convergence failed.
 x:  0.74151  0.80863  0.80863  N:    NaN  9.000    NaN  Nx:     NaN   dN:       NaN
 MRCHUE: Inverse mode at  18     Hk =   3.800
 TRCHEK2: N2 convergence failed.
 x:  0.74151  0.80863  0.80863  N:    NaN  9.000    NaN  Nx:     NaN   dN:       NaN
 TRCHEK2: N2 convergence failed.
 x:  0.74151  0.80863  0.80863  N:    NaN  9.000    NaN  Nx:     NaN   dN:       NaN
 TRCHEK2: N2 convergence failed.
 x:  0.74151  0.80863  0.80863  N:    NaN  9.000    NaN  Nx:     NaN   dN:       NaN
 TRCHEK2: N2 convergence failed.
 x:  0.74151  0.80863  0.80863  N:    NaN  9.000    NaN  Nx:     NaN   dN:       NaN
 TRCHEK2: N2 convergence failed.
 x:  0.74151  0.80863  0.80863  N:    NaN  9.000    NaN  Nx:     NaN   dN:       NaN
 TRCHEK2: N2 convergence failed.
 x:  0.74151  0.80863  0.80863  N:    NaN  9.000    NaN  Nx:     NaN   dN:       NaN
 TRCHEK2: N2 convergence failed.
 x:  0.74151  0.80863  0.80863  N:    NaN  9.000    NaN  Nx:     NaN   dN:       NaN
 TRCHEK2: N2 convergence failed.
 x:  0.74151  0.80863  0.80863  N:    NaN  9.000    NaN  Nx:     NaN   dN:       NaN
 TRCHEK2: N2 convergence failed.
 x:  0.74151  0.80863  0.80863  N:    NaN  9.000    NaN  Nx:     NaN   dN:       NaN
 TRCHEK2: N2 convergence failed.
 x:  0.74151  0.80863  0.80863  N:    NaN  9.000    NaN  Nx:     NaN   dN:       NaN
 TRCHEK2: N2 convergence failed.
 x:  0.74151  0.80863  0.80863  N:    NaN  9.000    NaN  Nx:     NaN   dN:       NaN
 TRCHEK2: N2 convergence failed.
 x:  0.74151  0.80863  0.80863  N:    NaN  9.000    NaN  Nx:     NaN   dN:       NaN
 TRCHEK2: N2 convergence failed.
 x:  0.74151  0.80863  0.80863  N:    NaN  9.000    NaN  Nx:     NaN   dN:       NaN
 TRCHEK2: N2 convergence failed.
 x:  0.74151  0.80863  0.80863  N:    NaN  9.000    NaN  Nx:     NaN   dN:       NaN
 TRCHEK2: N2 convergence failed.
 x:  0.74151  0.80863  0.80863  N:    NaN  9.000    NaN  Nx:     NaN   dN:       NaN
 TRCHEK2: N2 convergence failed.
 x:  0.74151  0.80863  0.80863  N:    NaN  9.000    NaN  Nx:     NaN   dN:       NaN
 TRCHEK2: N2 convergence failed.
 x:  0.74151  0.80863  0.80863  N:    NaN  9.000    NaN  Nx:     NaN   dN:       NaN
 TRCHEK2: N2 convergence failed.
 x:  0.74151  0.80863  0.80863  N:    NaN  9.000    NaN  Nx:     NaN   dN:       NaN
 TRCHEK2: N2 convergence failed.
 x:  0.74151  0.80863  0.80863  N:    NaN  9.000    NaN  Nx:     NaN   dN:       NaN
 TRCHEK2: N2 convergence failed.
 x:  0.74151  0.80863  0.80863  N:    NaN  9.000    NaN  Nx:     NaN   dN:       NaN
 TRCHEK2: N2 convergence failed.
 x:  0.74151  0.80863  0.80863  N:    NaN  9.000    NaN  Nx:     NaN   dN:       NaN
 TRCHEK2: N2 convergence failed.
 x:  0.74151  0.80863  0.80863  N:    NaN  9.000    NaN  Nx:     NaN   dN:       NaN
 TRCHEK2: N2 convergence failed.
 x:  0.74151  0.80863  0.80863  N:    NaN  9.000    NaN  Nx:     NaN   dN:       NaN
 TRCHEK2: N2 convergence failed.
 x:  0.74151  0.80863  0.80863  N:    NaN  9.000    NaN  Nx:     NaN   dN:       NaN
 MRCHUE: Convergence failed at  18  side 2    Res =         NaN
 TRCHEK2: N2 convergence failed.
 x:  0.74151  0.80863  0.80863  N:    NaN  9.000    NaN  Nx:     NaN   dN:       NaN
 TRCHEK2: N2 convergence failed.
 x:  0.80863  0.87665  0.87665  N:    NaN  9.000    NaN  Nx:     NaN   dN:       NaN
 MRCHUE: Inverse mode at  19     Hk =   3.800
 TRCHEK2: N2 convergence failed.
 x:  0.80863  0.87665  0.87665  N:    NaN  9.000    NaN  Nx:     NaN   dN:       NaN
 TRCHEK2: N2 convergence failed.
 x:  0.80863  0.87665  0.87665  N:    NaN  9.000    NaN  Nx:     NaN   dN:       NaN
 TRCHEK2: N2 convergence failed.
 x:  0.80863  0.87665  0.87665  N:    NaN  9.000    NaN  Nx:     NaN   dN:       NaN
 TRCHEK2: N2 convergence failed.
 x:  0.80863  0.87665  0.87665  N:    NaN  9.000    NaN  Nx:     NaN   dN:       NaN
 TRCHEK2: N2 convergence failed.
 x:  0.80863  0.87665  0.87665  N:    NaN  9.000    NaN  Nx:     NaN   dN:       NaN
 TRCHEK2: N2 convergence failed.
 x:  0.80863  0.87665  0.87665  N:    NaN  9.000    NaN  Nx:     NaN   dN:       NaN
 TRCHEK2: N2 convergence failed.
 x:  0.80863  0.87665  0.87665  N:    NaN  9.000    NaN  Nx:     NaN   dN:       NaN
 TRCHEK2: N2 convergence failed.
 x:  0.80863  0.87665  0.87665  N:    NaN  9.000    NaN  Nx:     NaN   dN:       NaN
 TRCHEK2: N2 convergence failed.
 x:  0.80863  0.87665  0.87665  N:    NaN  9.000    NaN  Nx:     NaN   dN:       NaN
 TRCHEK2: N2 convergence failed.
 x:  0.80863  0.87665  0.87665  N:    NaN  9.000    NaN  Nx:     NaN   dN:       NaN
 TRCHEK2: N2 convergence failed.
 x:  0.80863  0.87665  0.87665  N:    NaN  9.000    NaN  Nx:     NaN   dN:       NaN
 TRCHEK2: N2 convergence failed.
 x:  0.80863  0.87665  0.87665  N:    NaN  9.000    NaN  Nx:     NaN   dN:       NaN
 TRCHEK2: N2 convergence failed.
 x:  0.80863  0.87665  0.87665  N:    NaN  9.000    NaN  Nx:     NaN   dN:       NaN
 TRCHEK2: N2 convergence failed.
 x:  0.80863  0.87665  0.87665  N:    NaN  9.000    NaN  Nx:     NaN   dN:       NaN
 TRCHEK2: N2 convergence failed.
 x:  0.80863  0.87665  0.87665  N:    NaN  9.000    NaN  Nx:     NaN   dN:       NaN
 TRCHEK2: N2 convergence failed.
 x:  0.80863  0.87665  0.87665  N:    NaN  9.000    NaN  Nx:     NaN   dN:       NaN
 TRCHEK2: N2 convergence failed.
 x:  0.80863  0.87665  0.87665  N:    NaN  9.000    NaN  Nx:     NaN   dN:       NaN
 TRCHEK2: N2 convergence failed.
 x:  0.80863  0.87665  0.87665  N:    NaN  9.000    NaN  Nx:     NaN   dN:       NaN
 TRCHEK2: N2 convergence failed.
 x:  0.80863  0.87665  0.87665  N:    NaN  9.000    NaN  Nx:     NaN   dN:       NaN
 TRCHEK2: N2 convergence failed.
 x:  0.80863  0.87665  0.87665  N:    NaN  9.000    NaN  Nx:     NaN   dN:       NaN
 TRCHEK2: N2 convergence failed.
 x:  0.80863  0.87665  0.87665  N:    NaN  9.000    NaN  Nx:     NaN   dN:       NaN
 TRCHEK2: N2 convergence failed.
 x:  0.80863  0.87665  0.87665  N:    NaN  9.000    NaN  Nx:     NaN   dN:       NaN
 TRCHEK2: N2 convergence failed.
 x:  0.80863  0.87665  0.87665  N:    NaN  9.000    NaN  Nx:     NaN   dN:       NaN
 TRCHEK2: N2 convergence failed.
 x:  0.80863  0.87665  0.87665  N:    NaN  9.000    NaN  Nx:     NaN   dN:       NaN
 MRCHUE: Convergence failed at  19  side 2    Res =         NaN
 TRCHEK2: N2 convergence failed.
 x:  0.80863  0.87665  0.87665  N:    NaN  9.000    NaN  Nx:     NaN   dN:       NaN
 TRCHEK2: N2 convergence failed.
 x:  0.87665  0.91124  0.91124  N:    NaN  9.000    NaN  Nx:     NaN   dN:       NaN
 MRCHUE: Inverse mode at  20     Hk =   3.800
 TRCHEK2: N2 convergence failed.
 x:  0.87665  0.91124  0.91124  N:    NaN  9.000    NaN  Nx:     NaN   dN:       NaN
 TRCHEK2: N2 convergence failed.
 x:  0.87665  0.91124  0.91124  N:    NaN  9.000    NaN  Nx:     NaN   dN:       NaN
 TRCHEK2: N2 convergence failed.
 x:  0.87665  0.91124  0.91124  N:    NaN  9.000    NaN  Nx:     NaN   dN:       NaN
 TRCHEK2: N2 convergence failed.
 x:  0.87665  0.91124  0.91124  N:    NaN  9.000    NaN  Nx:     NaN   dN:       NaN
 TRCHEK2: N2 convergence failed.
 x:  0.87665  0.91124  0.91124  N:    NaN  9.000    NaN  Nx:     NaN   dN:       NaN
 TRCHEK2: N2 convergence failed.
 x:  0.87665  0.91124  0.91124  N:    NaN  9.000    NaN  Nx:     NaN   dN:       NaN
 TRCHEK2: N2 convergence failed.
 x:  0.87665  0.91124  0.91124  N:    NaN  9.000    NaN  Nx:     NaN   dN:       NaN
 TRCHEK2: N2 convergence failed.
 x:  0.87665  0.91124  0.91124  N:    NaN  9.000    NaN  Nx:     NaN   dN:       NaN
 TRCHEK2: N2 convergence failed.
 x:  0.87665  0.91124  0.91124  N:    NaN  9.000    NaN  Nx:     NaN   dN:       NaN
 TRCHEK2: N2 convergence failed.
 x:  0.87665  0.91124  0.91124  N:    NaN  9.000    NaN  Nx:     NaN   dN:       NaN
 TRCHEK2: N2 convergence failed.
 x:  0.87665  0.91124  0.91124  N:    NaN  9.000    NaN  Nx:     NaN   dN:       NaN
 TRCHEK2: N2 convergence failed.
 x:  0.87665  0.91124  0.91124  N:    NaN  9.000    NaN  Nx:     NaN   dN:       NaN
 TRCHEK2: N2 convergence failed.
 x:  0.87665  0.91124  0.91124  N:    NaN  9.000    NaN  Nx:     NaN   dN:       NaN
 TRCHEK2: N2 convergence failed.
 x:  0.87665  0.91124  0.91124  N:    NaN  9.000    NaN  Nx:     NaN   dN:       NaN
 TRCHEK2: N2 convergence failed.
 x:  0.87665  0.91124  0.91124  N:    NaN  9.000    NaN  Nx:     NaN   dN:       NaN
 TRCHEK2: N2 convergence failed.
 x:  0.87665  0.91124  0.91124  N:    NaN  9.000    NaN  Nx:     NaN   dN:       NaN
 TRCHEK2: N2 convergence failed.
 x:  0.87665  0.91124  0.91124  N:    NaN  9.000    NaN  Nx:     NaN   dN:       NaN
 TRCHEK2: N2 convergence failed.
 x:  0.87665  0.91124  0.91124  N:    NaN  9.000    NaN  Nx:     NaN   dN:       NaN
 TRCHEK2: N2 convergence failed.
 x:  0.87665  0.91124  0.91124  N:    NaN  9.000    NaN  Nx:     NaN   dN:       NaN
 TRCHEK2: N2 convergence failed.
 x:  0.87665  0.91124  0.91124  N:    NaN  9.000    NaN  Nx:     NaN   dN:       NaN
 TRCHEK2: N2 convergence failed.
 x:  0.87665  0.91124  0.91124  N:    NaN  9.000    NaN  Nx:     NaN   dN:       NaN
 TRCHEK2: N2 convergence failed.
 x:  0.87665  0.91124  0.91124  N:    NaN  9.000    NaN  Nx:     NaN   dN:       NaN
 TRCHEK2: N2 convergence failed.
 x:  0.87665  0.91124  0.91124  N:    NaN  9.000    NaN  Nx:     NaN   dN:       NaN
 TRCHEK2: N2 convergence failed.
 x:  0.87665  0.91124  0.91124  N:    NaN  9.000    NaN  Nx:     NaN   dN:       NaN
 MRCHUE: Convergence failed at  20  side 2    Res =         NaN
 TRCHEK2: N2 convergence failed.
 x:  0.87665  0.91124  0.91124  N:    NaN  9.000    NaN  Nx:     NaN   dN:       NaN
 TRCHEK2: N2 convergence failed.
 x:  0.91124  0.93739  0.93739  N:    NaN  9.000    NaN  Nx:     NaN   dN:       NaN
 MRCHUE: Inverse mode at  21     Hk =   3.800
 TRCHEK2: N2 convergence failed.
 x:  0.91124  0.93739  0.93739  N:    NaN  9.000    NaN  Nx:     NaN   dN:       NaN
 TRCHEK2: N2 convergence failed.
 x:  0.91124  0.93739  0.93739  N:    NaN  9.000    NaN  Nx:     NaN   dN:       NaN
 TRCHEK2: N2 convergence failed.
 x:  0.91124  0.93739  0.93739  N:    NaN  9.000    NaN  Nx:     NaN   dN:       NaN
 TRCHEK2: N2 convergence failed.
 x:  0.91124  0.93739  0.93739  N:    NaN  9.000    NaN  Nx:     NaN   dN:       NaN
 TRCHEK2: N2 convergence failed.
 x:  0.91124  0.93739  0.93739  N:    NaN  9.000    NaN  Nx:     NaN   dN:       NaN
 TRCHEK2: N2 convergence failed.
 x:  0.91124  0.93739  0.93739  N:    NaN  9.000    NaN  Nx:     NaN   dN:       NaN
 TRCHEK2: N2 convergence failed.
 x:  0.91124  0.93739  0.93739  N:    NaN  9.000    NaN  Nx:     NaN   dN:       NaN
 TRCHEK2: N2 convergence failed.
 x:  0.91124  0.93739  0.93739  N:    NaN  9.000    NaN  Nx:     NaN   dN:       NaN
 TRCHEK2: N2 convergence failed.
 x:  0.91124  0.93739  0.93739  N:    NaN  9.000    NaN  Nx:     NaN   dN:       NaN
 TRCHEK2: N2 convergence failed.
 x:  0.91124  0.93739  0.93739  N:    NaN  9.000    NaN  Nx:     NaN   dN:       NaN
 TRCHEK2: N2 convergence failed.
 x:  0.91124  0.93739  0.93739  N:    NaN  9.000    NaN  Nx:     NaN   dN:       NaN
 TRCHEK2: N2 convergence failed.
 x:  0.91124  0.93739  0.93739  N:    NaN  9.000    NaN  Nx:     NaN   dN:       NaN
 TRCHEK2: N2 convergence failed.
 x:  0.91124  0.93739  0.93739  N:    NaN  9.000    NaN  Nx:     NaN   dN:       NaN
 TRCHEK2: N2 convergence failed.
 x:  0.91124  0.93739  0.93739  N:    NaN  9.000    NaN  Nx:     NaN   dN:       NaN
 TRCHEK2: N2 convergence failed.
 x:  0.91124  0.93739  0.93739  N:    NaN  9.000    NaN  Nx:     NaN   dN:       NaN
 TRCHEK2: N2 convergence failed.
 x:  0.91124  0.93739  0.93739  N:    NaN  9.000    NaN  Nx:     NaN   dN:       NaN
 TRCHEK2: N2 convergence failed.
 x:  0.91124  0.93739  0.93739  N:    NaN  9.000    NaN  Nx:     NaN   dN:       NaN
 TRCHEK2: N2 convergence failed.
 x:  0.91124  0.93739  0.93739  N:    NaN  9.000    NaN  Nx:     NaN   dN:       NaN
 TRCHEK2: N2 convergence failed.
 x:  0.91124  0.93739  0.93739  N:    NaN  9.000    NaN  Nx:     NaN   dN:       NaN
 TRCHEK2: N2 convergence failed.
 x:  0.91124  0.93739  0.93739  N:    NaN  9.000    NaN  Nx:     NaN   dN:       NaN
 TRCHEK2: N2 convergence failed.
 x:  0.91124  0.93739  0.93739  N:    NaN  9.000    NaN  Nx:     NaN   dN:       NaN
 TRCHEK2: N2 convergence failed.
 x:  0.91124  0.93739  0.93739  N:    NaN  9.000    NaN  Nx:     NaN   dN:       NaN
 TRCHEK2: N2 convergence failed.
 x:  0.91124  0.93739  0.93739  N:    NaN  9.000    NaN  Nx:     NaN   dN:       NaN
 TRCHEK2: N2 convergence failed.
 x:  0.91124  0.93739  0.93739  N:    NaN  9.000    NaN  Nx:     NaN   dN:       NaN
 MRCHUE: Convergence failed at  21  side 2    Res =         NaN
 TRCHEK2: N2 convergence failed.
 x:  0.91124  0.93739  0.93739  N:    NaN  9.000    NaN  Nx:     NaN   dN:       NaN
 TRCHEK2: N2 convergence failed.
 x:  0.93739  0.94633  0.94633  N:    NaN  9.000    NaN  Nx:     NaN   dN:       NaN
 MRCHUE: Inverse mode at  22     Hk =   3.800
 TRCHEK2: N2 convergence failed.
 x:  0.93739  0.94633  0.94633  N:    NaN  9.000    NaN  Nx:     NaN   dN:       NaN
 TRCHEK2: N2 convergence failed.
 x:  0.93739  0.94633  0.94633  N:    NaN  9.000    NaN  Nx:     NaN   dN:       NaN
 TRCHEK2: N2 convergence failed.
 x:  0.93739  0.94633  0.94633  N:    NaN  9.000    NaN  Nx:     NaN   dN:       NaN
 TRCHEK2: N2 convergence failed.
 x:  0.93739  0.94633  0.94633  N:    NaN  9.000    NaN  Nx:     NaN   dN:       NaN
 TRCHEK2: N2 convergence failed.
 x:  0.93739  0.94633  0.94633  N:    NaN  9.000    NaN  Nx:     NaN   dN:       NaN
 TRCHEK2: N2 convergence failed.
 x:  0.93739  0.94633  0.94633  N:    NaN  9.000    NaN  Nx:     NaN   dN:       NaN
 TRCHEK2: N2 convergence failed.
 x:  0.93739  0.94633  0.94633  N:    NaN  9.000    NaN  Nx:     NaN   dN:       NaN
 TRCHEK2: N2 convergence failed.
 x:  0.93739  0.94633  0.94633  N:    NaN  9.000    NaN  Nx:     NaN   dN:       NaN
 TRCHEK2: N2 convergence failed.
 x:  0.93739  0.94633  0.94633  N:    NaN  9.000    NaN  Nx:     NaN   dN:       NaN
 TRCHEK2: N2 convergence failed.
 x:  0.93739  0.94633  0.94633  N:    NaN  9.000    NaN  Nx:     NaN   dN:       NaN
 TRCHEK2: N2 convergence failed.
 x:  0.93739  0.94633  0.94633  N:    NaN  9.000    NaN  Nx:     NaN   dN:       NaN
 TRCHEK2: N2 convergence failed.
 x:  0.93739  0.94633  0.94633  N:    NaN  9.000    NaN  Nx:     NaN   dN:       NaN
 TRCHEK2: N2 convergence failed.
 x:  0.93739  0.94633  0.94633  N:    NaN  9.000    NaN  Nx:     NaN   dN:       NaN
 TRCHEK2: N2 convergence failed.
 x:  0.93739  0.94633  0.94633  N:    NaN  9.000    NaN  Nx:     NaN   dN:       NaN
 TRCHEK2: N2 convergence failed.
 x:  0.93739  0.94633  0.94633  N:    NaN  9.000    NaN  Nx:     NaN   dN:       NaN
 TRCHEK2: N2 convergence failed.
 x:  0.93739  0.94633  0.94633  N:    NaN  9.000    NaN  Nx:     NaN   dN:       NaN
 TRCHEK2: N2 convergence failed.
 x:  0.93739  0.94633  0.94633  N:    NaN  9.000    NaN  Nx:     NaN   dN:       NaN
 TRCHEK2: N2 convergence failed.
 x:  0.93739  0.94633  0.94633  N:    NaN  9.000    NaN  Nx:     NaN   dN:       NaN
 TRCHEK2: N2 convergence failed.
 x:  0.93739  0.94633  0.94633  N:    NaN  9.000    NaN  Nx:     NaN   dN:       NaN
 TRCHEK2: N2 convergence failed.
 x:  0.93739  0.94633  0.94633  N:    NaN  9.000    NaN  Nx:     NaN   dN:       NaN
 TRCHEK2: N2 convergence failed.
 x:  0.93739  0.94633  0.94633  N:    NaN  9.000    NaN  Nx:     NaN   dN:       NaN
 TRCHEK2: N2 convergence failed.
 x:  0.93739  0.94633  0.94633  N:    NaN  9.000    NaN  Nx:     NaN   dN:       NaN
 TRCHEK2: N2 convergence failed.
 x:  0.93739  0.94633  0.94633  N:    NaN  9.000    NaN  Nx:     NaN   dN:       NaN
 TRCHEK2: N2 convergence failed.
 x:  0.93739  0.94633  0.94633  N:    NaN  9.000    NaN  Nx:     NaN   dN:       NaN
 MRCHUE: Convergence failed at  22  side 2    Res =         NaN
 TRCHEK2: N2 convergence failed.
 x:  0.93739  0.94633  0.94633  N:    NaN  9.000    NaN  Nx:     NaN   dN:       NaN
 TRCHEK2: N2 convergence failed.
 x:  0.94633  0.96390  0.96390  N:    NaN  9.000    NaN  Nx:     NaN   dN:       NaN
 MRCHUE: Inverse mode at  23     Hk =   3.800
 TRCHEK2: N2 convergence failed.
 x:  0.94633  0.96390  0.96390  N:    NaN  9.000    NaN  Nx:     NaN   dN:       NaN
 TRCHEK2: N2 convergence failed.
 x:  0.94633  0.96390  0.96390  N:    NaN  9.000    NaN  Nx:     NaN   dN:       NaN
 TRCHEK2: N2 convergence failed.
 x:  0.94633  0.96390  0.96390  N:    NaN  9.000    NaN  Nx:     NaN   dN:       NaN
 TRCHEK2: N2 convergence failed.
 x:  0.94633  0.96390  0.96390  N:    NaN  9.000    NaN  Nx:     NaN   dN:       NaN
 TRCHEK2: N2 convergence failed.
 x:  0.94633  0.96390  0.96390  N:    NaN  9.000    NaN  Nx:     NaN   dN:       NaN
 TRCHEK2: N2 convergence failed.
 x:  0.94633  0.96390  0.96390  N:    NaN  9.000    NaN  Nx:     NaN   dN:       NaN
 TRCHEK2: N2 convergence failed.
 x:  0.94633  0.96390  0.96390  N:    NaN  9.000    NaN  Nx:     NaN   dN:       NaN
 TRCHEK2: N2 convergence failed.
 x:  0.94633  0.96390  0.96390  N:    NaN  9.000    NaN  Nx:     NaN   dN:       NaN
 TRCHEK2: N2 convergence failed.
 x:  0.94633  0.96390  0.96390  N:    NaN  9.000    NaN  Nx:     NaN   dN:       NaN
 TRCHEK2: N2 convergence failed.
 x:  0.94633  0.96390  0.96390  N:    NaN  9.000    NaN  Nx:     NaN   dN:       NaN
 TRCHEK2: N2 convergence failed.
 x:  0.94633  0.96390  0.96390  N:    NaN  9.000    NaN  Nx:     NaN   dN:       NaN
 TRCHEK2: N2 convergence failed.
 x:  0.94633  0.96390  0.96390  N:    NaN  9.000    NaN  Nx:     NaN   dN:       NaN
 TRCHEK2: N2 convergence failed.
 x:  0.94633  0.96390  0.96390  N:    NaN  9.000    NaN  Nx:     NaN   dN:       NaN
 TRCHEK2: N2 convergence failed.
 x:  0.94633  0.96390  0.96390  N:    NaN  9.000    NaN  Nx:     NaN   dN:       NaN
 TRCHEK2: N2 convergence failed.
 x:  0.94633  0.96390  0.96390  N:    NaN  9.000    NaN  Nx:     NaN   dN:       NaN
 TRCHEK2: N2 convergence failed.
 x:  0.94633  0.96390  0.96390  N:    NaN  9.000    NaN  Nx:     NaN   dN:       NaN
 TRCHEK2: N2 convergence failed.
 x:  0.94633  0.96390  0.96390  N:    NaN  9.000    NaN  Nx:     NaN   dN:       NaN
 TRCHEK2: N2 convergence failed.
 x:  0.94633  0.96390  0.96390  N:    NaN  9.000    NaN  Nx:     NaN   dN:       NaN
 TRCHEK2: N2 convergence failed.
 x:  0.94633  0.96390  0.96390  N:    NaN  9.000    NaN  Nx:     NaN   dN:       NaN
 TRCHEK2: N2 convergence failed.
 x:  0.94633  0.96390  0.96390  N:    NaN  9.000    NaN  Nx:     NaN   dN:       NaN
 TRCHEK2: N2 convergence failed.
 x:  0.94633  0.96390  0.96390  N:    NaN  9.000    NaN  Nx:     NaN   dN:       NaN
 TRCHEK2: N2 convergence failed.
 x:  0.94633  0.96390  0.96390  N:    NaN  9.000    NaN  Nx:     NaN   dN:       NaN
 TRCHEK2: N2 convergence failed.
 x:  0.94633  0.96390  0.96390  N:    NaN  9.000    NaN  Nx:     NaN   dN:       NaN
 TRCHEK2: N2 convergence failed.
 x:  0.94633  0.96390  0.96390  N:    NaN  9.000    NaN  Nx:     NaN   dN:       NaN
 MRCHUE: Convergence failed at  23  side 2    Res =         NaN
 TRCHEK2: N2 convergence failed.
 x:  0.94633  0.96390  0.96390  N:    NaN  9.000    NaN  Nx:     NaN   dN:       NaN
 TRCHEK2: N2 convergence failed.
 x:  0.96390  0.99083  0.99083  N:    NaN  9.000    NaN  Nx:     NaN   dN:       NaN
 MRCHUE: Inverse mode at  24     Hk =   3.800
 TRCHEK2: N2 convergence failed.
 x:  0.96390  0.99083  0.99083  N:    NaN  9.000    NaN  Nx:     NaN   dN:       NaN
 TRCHEK2: N2 convergence failed.
 x:  0.96390  0.99083  0.99083  N:    NaN  9.000    NaN  Nx:     NaN   dN:       NaN
 TRCHEK2: N2 convergence failed.
 x:  0.96390  0.99083  0.99083  N:    NaN  9.000    NaN  Nx:     NaN   dN:       NaN
 TRCHEK2: N2 convergence failed.
 x:  0.96390  0.99083  0.99083  N:    NaN  9.000    NaN  Nx:     NaN   dN:       NaN
 TRCHEK2: N2 convergence failed.
 x:  0.96390  0.99083  0.99083  N:    NaN  9.000    NaN  Nx:     NaN   dN:       NaN
 TRCHEK2: N2 convergence failed.
 x:  0.96390  0.99083  0.99083  N:    NaN  9.000    NaN  Nx:     NaN   dN:       NaN
 TRCHEK2: N2 convergence failed.
 x:  0.96390  0.99083  0.99083  N:    NaN  9.000    NaN  Nx:     NaN   dN:       NaN
 TRCHEK2: N2 convergence failed.
 x:  0.96390  0.99083  0.99083  N:    NaN  9.000    NaN  Nx:     NaN   dN:       NaN
 TRCHEK2: N2 convergence failed.
 x:  0.96390  0.99083  0.99083  N:    NaN  9.000    NaN  Nx:     NaN   dN:       NaN
 TRCHEK2: N2 convergence failed.
 x:  0.96390  0.99083  0.99083  N:    NaN  9.000    NaN  Nx:     NaN   dN:       NaN
 TRCHEK2: N2 convergence failed.
 x:  0.96390  0.99083  0.99083  N:    NaN  9.000    NaN  Nx:     NaN   dN:       NaN
 TRCHEK2: N2 convergence failed.
 x:  0.96390  0.99083  0.99083  N:    NaN  9.000    NaN  Nx:     NaN   dN:       NaN
 TRCHEK2: N2 convergence failed.
 x:  0.96390  0.99083  0.99083  N:    NaN  9.000    NaN  Nx:     NaN   dN:       NaN
 TRCHEK2: N2 convergence failed.
 x:  0.96390  0.99083  0.99083  N:    NaN  9.000    NaN  Nx:     NaN   dN:       NaN
 TRCHEK2: N2 convergence failed.
 x:  0.96390  0.99083  0.99083  N:    NaN  9.000    NaN  Nx:     NaN   dN:       NaN
 TRCHEK2: N2 convergence failed.
 x:  0.96390  0.99083  0.99083  N:    NaN  9.000    NaN  Nx:     NaN   dN:       NaN
 TRCHEK2: N2 convergence failed.
 x:  0.96390  0.99083  0.99083  N:    NaN  9.000    NaN  Nx:     NaN   dN:       NaN
 TRCHEK2: N2 convergence failed.
 x:  0.96390  0.99083  0.99083  N:    NaN  9.000    NaN  Nx:     NaN   dN:       NaN
 TRCHEK2: N2 convergence failed.
 x:  0.96390  0.99083  0.99083  N:    NaN  9.000    NaN  Nx:     NaN   dN:       NaN
 TRCHEK2: N2 convergence failed.
 x:  0.96390  0.99083  0.99083  N:    NaN  9.000    NaN  Nx:     NaN   dN:       NaN
 TRCHEK2: N2 convergence failed.
 x:  0.96390  0.99083  0.99083  N:    NaN  9.000    NaN  Nx:     NaN   dN:       NaN
 TRCHEK2: N2 convergence failed.
 x:  0.96390  0.99083  0.99083  N:    NaN  9.000    NaN  Nx:     NaN   dN:       NaN
 TRCHEK2: N2 convergence failed.
 x:  0.96390  0.99083  0.99083  N:    NaN  9.000    NaN  Nx:     NaN   dN:       NaN
 TRCHEK2: N2 convergence failed.
 x:  0.96390  0.99083  0.99083  N:    NaN  9.000    NaN  Nx:     NaN   dN:       NaN
 MRCHUE: Convergence failed at  24  side 2    Res =         NaN
 TRCHEK2: N2 convergence failed.
 x:  0.96390  0.99083  0.99083  N:    NaN  9.000    NaN  Nx:     NaN   dN:       NaN
 TRCHEK2: N2 convergence failed.
 x:  0.99083  1.01823  1.01823  N:    NaN  9.000    NaN  Nx:     NaN   dN:       NaN
 MRCHUE: Inverse mode at  25     Hk =   3.800
 TRCHEK2: N2 convergence failed.
 x:  0.99083  1.01823  1.01823  N:    NaN  9.000    NaN  Nx:     NaN   dN:       NaN
 TRCHEK2: N2 convergence failed.
 x:  0.99083  1.01823  1.01823  N:    NaN  9.000    NaN  Nx:     NaN   dN:       NaN
 TRCHEK2: N2 convergence failed.
 x:  0.99083  1.01823  1.01823  N:    NaN  9.000    NaN  Nx:     NaN   dN:       NaN
 TRCHEK2: N2 convergence failed.
 x:  0.99083  1.01823  1.01823  N:    NaN  9.000    NaN  Nx:     NaN   dN:       NaN
 TRCHEK2: N2 convergence failed.
 x:  0.99083  1.01823  1.01823  N:    NaN  9.000    NaN  Nx:     NaN   dN:       NaN
 TRCHEK2: N2 convergence failed.
 x:  0.99083  1.01823  1.01823  N:    NaN  9.000    NaN  Nx:     NaN   dN:       NaN
 TRCHEK2: N2 convergence failed.
 x:  0.99083  1.01823  1.01823  N:    NaN  9.000    NaN  Nx:     NaN   dN:       NaN
 TRCHEK2: N2 convergence failed.
 x:  0.99083  1.01823  1.01823  N:    NaN  9.000    NaN  Nx:     NaN   dN:       NaN
 TRCHEK2: N2 convergence failed.
 x:  0.99083  1.01823  1.01823  N:    NaN  9.000    NaN  Nx:     NaN   dN:       NaN
 TRCHEK2: N2 convergence failed.
 x:  0.99083  1.01823  1.01823  N:    NaN  9.000    NaN  Nx:     NaN   dN:       NaN
 TRCHEK2: N2 convergence failed.
 x:  0.99083  1.01823  1.01823  N:    NaN  9.000    NaN  Nx:     NaN   dN:       NaN
 TRCHEK2: N2 convergence failed.
 x:  0.99083  1.01823  1.01823  N:    NaN  9.000    NaN  Nx:     NaN   dN:       NaN
 TRCHEK2: N2 convergence failed.
 x:  0.99083  1.01823  1.01823  N:    NaN  9.000    NaN  Nx:     NaN   dN:       NaN
 TRCHEK2: N2 convergence failed.
 x:  0.99083  1.01823  1.01823  N:    NaN  9.000    NaN  Nx:     NaN   dN:       NaN
 TRCHEK2: N2 convergence failed.
 x:  0.99083  1.01823  1.01823  N:    NaN  9.000    NaN  Nx:     NaN   dN:       NaN
 TRCHEK2: N2 convergence failed.
 x:  0.99083  1.01823  1.01823  N:    NaN  9.000    NaN  Nx:     NaN   dN:       NaN
 TRCHEK2: N2 convergence failed.
 x:  0.99083  1.01823  1.01823  N:    NaN  9.000    NaN  Nx:     NaN   dN:       NaN
 TRCHEK2: N2 convergence failed.
 x:  0.99083  1.01823  1.01823  N:    NaN  9.000    NaN  Nx:     NaN   dN:       NaN
 TRCHEK2: N2 convergence failed.
 x:  0.99083  1.01823  1.01823  N:    NaN  9.000    NaN  Nx:     NaN   dN:       NaN
 TRCHEK2: N2 convergence failed.
 x:  0.99083  1.01823  1.01823  N:    NaN  9.000    NaN  Nx:     NaN   dN:       NaN
 TRCHEK2: N2 convergence failed.
 x:  0.99083  1.01823  1.01823  N:    NaN  9.000    NaN  Nx:     NaN   dN:       NaN
 TRCHEK2: N2 convergence failed.
 x:  0.99083  1.01823  1.01823  N:    NaN  9.000    NaN  Nx:     NaN   dN:       NaN
 TRCHEK2: N2 convergence failed.
 x:  0.99083  1.01823  1.01823  N:    NaN  9.000    NaN  Nx:     NaN   dN:       NaN
 TRCHEK2: N2 convergence failed.
 x:  0.99083  1.01823  1.01823  N:    NaN  9.000    NaN  Nx:     NaN   dN:       NaN
 MRCHUE: Convergence failed at  25  side 2    Res =         NaN
 TRCHEK2: N2 convergence failed.
 x:  0.99083  1.01823  1.01823  N:    NaN  9.000    NaN  Nx:     NaN   dN:       NaN
 TRCHEK2: N2 convergence failed.
 x:  1.01823  1.02046  1.02046  N:    NaN  9.000    NaN  Nx:     NaN   dN:       NaN
 MRCHUE: Inverse mode at  26     Hk =   3.800
 TRCHEK2: N2 convergence failed.
 x:  1.01823  1.02046  1.02046  N:    NaN  9.000    NaN  Nx:     NaN   dN:       NaN
 TRCHEK2: N2 convergence failed.
 x:  1.01823  1.02046  1.02046  N:    NaN  9.000    NaN  Nx:     NaN   dN:       NaN
 TRCHEK2: N2 convergence failed.
 x:  1.01823  1.02046  1.02046  N:    NaN  9.000    NaN  Nx:     NaN   dN:       NaN
 TRCHEK2: N2 convergence failed.
 x:  1.01823  1.02046  1.02046  N:    NaN  9.000    NaN  Nx:     NaN   dN:       NaN
 TRCHEK2: N2 convergence failed.
 x:  1.01823  1.02046  1.02046  N:    NaN  9.000    NaN  Nx:     NaN   dN:       NaN
 TRCHEK2: N2 convergence failed.
 x:  1.01823  1.02046  1.02046  N:    NaN  9.000    NaN  Nx:     NaN   dN:       NaN
 TRCHEK2: N2 convergence failed.
 x:  1.01823  1.02046  1.02046  N:    NaN  9.000    NaN  Nx:     NaN   dN:       NaN
 TRCHEK2: N2 convergence failed.
 x:  1.01823  1.02046  1.02046  N:    NaN  9.000    NaN  Nx:     NaN   dN:       NaN
 TRCHEK2: N2 convergence failed.
 x:  1.01823  1.02046  1.02046  N:    NaN  9.000    NaN  Nx:     NaN   dN:       NaN
 TRCHEK2: N2 convergence failed.
 x:  1.01823  1.02046  1.02046  N:    NaN  9.000    NaN  Nx:     NaN   dN:       NaN
 TRCHEK2: N2 convergence failed.
 x:  1.01823  1.02046  1.02046  N:    NaN  9.000    NaN  Nx:     NaN   dN:       NaN
 TRCHEK2: N2 convergence failed.
 x:  1.01823  1.02046  1.02046  N:    NaN  9.000    NaN  Nx:     NaN   dN:       NaN
 TRCHEK2: N2 convergence failed.
 x:  1.01823  1.02046  1.02046  N:    NaN  9.000    NaN  Nx:     NaN   dN:       NaN
 TRCHEK2: N2 convergence failed.
 x:  1.01823  1.02046  1.02046  N:    NaN  9.000    NaN  Nx:     NaN   dN:       NaN
 TRCHEK2: N2 convergence failed.
 x:  1.01823  1.02046  1.02046  N:    NaN  9.000    NaN  Nx:     NaN   dN:       NaN
 TRCHEK2: N2 convergence failed.
 x:  1.01823  1.02046  1.02046  N:    NaN  9.000    NaN  Nx:     NaN   dN:       NaN
 TRCHEK2: N2 convergence failed.
 x:  1.01823  1.02046  1.02046  N:    NaN  9.000    NaN  Nx:     NaN   dN:       NaN
 TRCHEK2: N2 convergence failed.
 x:  1.01823  1.02046  1.02046  N:    NaN  9.000    NaN  Nx:     NaN   dN:       NaN
 TRCHEK2: N2 convergence failed.
 x:  1.01823  1.02046  1.02046  N:    NaN  9.000    NaN  Nx:     NaN   dN:       NaN
 TRCHEK2: N2 convergence failed.
 x:  1.01823  1.02046  1.02046  N:    NaN  9.000    NaN  Nx:     NaN   dN:       NaN
[...]
 x:  0.00000  0.00000  0.00000  N:    NaN  9.000    NaN  Nx:     NaN   dN:       NaN
 TRCHEK2: N2 convergence failed.
 x:  0.00000  0.00000  0.00000  N:    NaN  9.000    NaN  Nx:     NaN   dN:       NaN
 TRCHEK2: N2 convergence failed.
 x:  0.00000  0.00000  0.00000  N:    NaN  9.000    NaN  Nx:     NaN   dN:       NaN
 TRCHEK2: N2 convergence failed.
 x:  0.00000  0.00000  0.00000  N:    NaN  9.000    NaN  Nx:     NaN   dN:       NaN
 TRCHEK2: N2 convergence failed.
 x:  0.00000  0.00000  0.00000  N:    NaN  9.000    NaN  Nx:     NaN   dN:       NaN
 TRCHEK2: N2 convergence failed.
 x:  0.00000  0.00000  0.00000  N:    NaN  9.000    NaN  Nx:     NaN   dN:       NaN
 TRCHEK2: N2 convergence failed.
 x:  0.00000  0.00000  0.00000  N:    NaN  9.000    NaN  Nx:     NaN   dN:       NaN
 TRCHEK2: N2 convergence failed.
 x:  0.00000  0.00000  0.00000  N:    NaN  9.000    NaN  Nx:     NaN   dN:       NaN
 TRCHEK2: N2 convergence failed.
 x:  0.00000  0.00000  0.00000  N:    NaN  9.000    NaN  Nx:     NaN   dN:       NaN
 TRCHEK2: N2 convergence failed.
 x:  0.00000  0.00000  0.00000  N:    NaN  9.000    NaN  Nx:     NaN   dN:       NaN
 TRCHEK2: N2 convergence failed.
 x:  0.00000  0.00000  0.00000  N:    NaN  9.000    NaN  Nx:     NaN   dN:       NaN
 TRCHEK2: N2 convergence failed.
 x:  0.00000  0.00000  0.00000  N:    NaN  9.000    NaN  Nx:     NaN   dN:       NaN
 TRCHEK2: N2 convergence failed.
 x:  0.00000  0.00000  0.00000  N:    NaN  9.000    NaN  Nx:     NaN   dN:       NaN
 TRCHEK2: N2 convergence failed.
 x:  0.00000  0.00000  0.00000  N:    NaN  9.000    NaN  Nx:     NaN   dN:       NaN
 TRCHEK2: N2 convergence failed.
 x:  0.00000  0.00000  0.00000  N:    NaN  9.000    NaN  Nx:     NaN   dN:       NaN
 TRCHEK2: N2 convergence failed.
 x:  0.00000  0.00000  0.00000  N:    NaN  9.000    NaN  Nx:     NaN   dN:       NaN
 TRCHEK2: N2 convergence failed.
 x:  0.00000  0.00000  0.00000  N:    NaN  9.000    NaN  Nx:     NaN   dN:       NaN
 TRCHEK2: N2 convergence failed.
 x:  0.00000  0.00000  0.00000  N:    NaN  9.000    NaN  Nx:     NaN   dN:       NaN
 TRCHEK2: N2 convergence failed.
 x:  0.00000  0.00000  0.00000  N:    NaN  9.000    NaN  Nx:     NaN   dN:       NaN
 TRCHEK2: N2 convergence failed.
 x:  0.00000  0.00000  0.00000  N:    NaN  9.000    NaN  Nx:     NaN   dN:       NaN
 MRCHDU: Convergence failed at  22  side 2    Res =         NaN
 TRCHEK2: N2 convergence failed.
 x:  0.00000  0.00000  0.00000  N:    NaN  9.000    NaN  Nx:     NaN   dN:       NaN
 TRCHEK2: N2 convergence failed.
 x:  0.00000  0.00000  0.00000  N:    NaN  9.000    NaN  Nx:     NaN   dN:       NaN
 TRCHEK2: N2 convergence failed.
 x:  0.00000  0.00000  0.00000  N:    NaN  9.000    NaN  Nx:     NaN   dN:       NaN
 TRCHEK2: N2 convergence failed.
 x:  0.00000  0.00000  0.00000  N:    NaN  9.000    NaN  Nx:     NaN   dN:       NaN
 TRCHEK2: N2 convergence failed.
 x:  0.00000  0.00000  0.00000  N:    NaN  9.000    NaN  Nx:     NaN   dN:       NaN
 TRCHEK2: N2 convergence failed.
 x:  0.00000  0.00000  0.00000  N:    NaN  9.000    NaN  Nx:     NaN   dN:       NaN
 TRCHEK2: N2 convergence failed.
 x:  0.00000  0.00000  0.00000  N:    NaN  9.000    NaN  Nx:     NaN   dN:       NaN
 TRCHEK2: N2 convergence failed.
 x:  0.00000  0.00000  0.00000  N:    NaN  9.000    NaN  Nx:     NaN   dN:       NaN
 TRCHEK2: N2 convergence failed.
 x:  0.00000  0.00000  0.00000  N:    NaN  9.000    NaN  Nx:     NaN   dN:       NaN
 TRCHEK2: N2 convergence failed.
 x:  0.00000  0.00000  0.00000  N:    NaN  9.000    NaN  Nx:     NaN   dN:       NaN
 TRCHEK2: N2 convergence failed.
 x:  0.00000  0.00000  0.00000  N:    NaN  9.000    NaN  Nx:     NaN   dN:       NaN
 TRCHEK2: N2 convergence failed.
 x:  0.00000  0.00000  0.00000  N:    NaN  9.000    NaN  Nx:     NaN   dN:       NaN
 TRCHEK2: N2 convergence failed.
 x:  0.00000  0.00000  0.00000  N:    NaN  9.000    NaN  Nx:     NaN   dN:       NaN
 TRCHEK2: N2 convergence failed.
 x:  0.00000  0.00000  0.00000  N:    NaN  9.000    NaN  Nx:     NaN   dN:       NaN
 TRCHEK2: N2 convergence failed.
 x:  0.00000  0.00000  0.00000  N:    NaN  9.000    NaN  Nx:     NaN   dN:       NaN
 TRCHEK2: N2 convergence failed.
 x:  0.00000  0.00000  0.00000  N:    NaN  9.000    NaN  Nx:     NaN   dN:       NaN
 TRCHEK2: N2 convergence failed.
 x:  0.00000  0.00000  0.00000  N:    NaN  9.000    NaN  Nx:     NaN   dN:       NaN
 TRCHEK2: N2 convergence failed.
 x:  0.00000  0.00000  0.00000  N:    NaN  9.000    NaN  Nx:     NaN   dN:       NaN
 TRCHEK2: N2 convergence failed.
 x:  0.00000  0.00000  0.00000  N:    NaN  9.000    NaN  Nx:     NaN   dN:       NaN
 TRCHEK2: N2 convergence failed.
 x:  0.00000  0.00000  0.00000  N:    NaN  9.000    NaN  Nx:     NaN   dN:       NaN
 TRCHEK2: N2 convergence failed.
 x:  0.00000  0.00000  0.00000  N:    NaN  9.000    NaN  Nx:     NaN   dN:       NaN
 TRCHEK2: N2 convergence failed.
 x:  0.00000  0.00000  0.00000  N:    NaN  9.000    NaN  Nx:     NaN   dN:       NaN
 TRCHEK2: N2 convergence failed.
 x:  0.00000  0.00000  0.00000  N:    NaN  9.000    NaN  Nx:     NaN   dN:       NaN
 TRCHEK2: N2 convergence failed.
 x:  0.00000  0.00000  0.00000  N:    NaN  9.000    NaN  Nx:     NaN   dN:       NaN
 TRCHEK2: N2 convergence failed.
 x:  0.00000  0.00000  0.00000  N:    NaN  9.000    NaN  Nx:     NaN   dN:       NaN
 TRCHEK2: N2 convergence failed.
 x:  0.00000  0.00000  0.00000  N:    NaN  9.000    NaN  Nx:     NaN   dN:       NaN
 MRCHDU: Convergence failed at  23  side 2    Res =         NaN
 TRCHEK2: N2 convergence failed.
 x:  0.00000  0.00000  0.00000  N:    NaN  9.000    NaN  Nx:     NaN   dN:       NaN
 TRCHEK2: N2 convergence failed.
 x:  0.00000  0.00000  0.00000  N:    NaN  9.000    NaN  Nx:     NaN   dN:       NaN
 TRCHEK2: N2 convergence failed.
 x:  0.00000  0.00000  0.00000  N:    NaN  9.000    NaN  Nx:     NaN   dN:       NaN
 TRCHEK2: N2 convergence failed.
 x:  0.00000  0.00000  0.00000  N:    NaN  9.000    NaN  Nx:     NaN   dN:       NaN
 TRCHEK2: N2 convergence failed.
 x:  0.00000  0.00000  0.00000  N:    NaN  9.000    NaN  Nx:     NaN   dN:       NaN
 TRCHEK2: N2 convergence failed.
 x:  0.00000  0.00000  0.00000  N:    NaN  9.000    NaN  Nx:     NaN   dN:       NaN
 TRCHEK2: N2 convergence failed.
 x:  0.00000  0.00000  0.00000  N:    NaN  9.000    NaN  Nx:     NaN   dN:       NaN
 TRCHEK2: N2 convergence failed.
 x:  0.00000  0.00000  0.00000  N:    NaN  9.000    NaN  Nx:     NaN   dN:       NaN
 TRCHEK2: N2 convergence failed.
 x:  0.00000  0.00000  0.00000  N:    NaN  9.000    NaN  Nx:     NaN   dN:       NaN
 TRCHEK2: N2 convergence failed.
 x:  0.00000  0.00000  0.00000  N:    NaN  9.000    NaN  Nx:     NaN   dN:       NaN
 TRCHEK2: N2 convergence failed.
 x:  0.00000  0.00000  0.00000  N:    NaN  9.000    NaN  Nx:     NaN   dN:       NaN
 TRCHEK2: N2 convergence failed.
 x:  0.00000  0.00000  0.00000  N:    NaN  9.000    NaN  Nx:     NaN   dN:       NaN
 TRCHEK2: N2 convergence failed.
 x:  0.00000  0.00000  0.00000  N:    NaN  9.000    NaN  Nx:     NaN   dN:       NaN
 TRCHEK2: N2 convergence failed.
 x:  0.00000  0.00000  0.00000  N:    NaN  9.000    NaN  Nx:     NaN   dN:       NaN
 TRCHEK2: N2 convergence failed.
 x:  0.00000  0.00000  0.00000  N:    NaN  9.000    NaN  Nx:     NaN   dN:       NaN
 TRCHEK2: N2 convergence failed.
 x:  0.00000  0.00000  0.00000  N:    NaN  9.000    NaN  Nx:     NaN   dN:       NaN
 TRCHEK2: N2 convergence failed.
 x:  0.00000  0.00000  0.00000  N:    NaN  9.000    NaN  Nx:     NaN   dN:       NaN
 TRCHEK2: N2 convergence failed.
 x:  0.00000  0.00000  0.00000  N:    NaN  9.000    NaN  Nx:     NaN   dN:       NaN
 TRCHEK2: N2 convergence failed.
 x:  0.00000  0.00000  0.00000  N:    NaN  9.000    NaN  Nx:     NaN   dN:       NaN
 TRCHEK2: N2 convergence failed.
 x:  0.00000  0.00000  0.00000  N:    NaN  9.000    NaN  Nx:     NaN   dN:       NaN
 TRCHEK2: N2 convergence failed.
 x:  0.00000  0.00000  0.00000  N:    NaN  9.000    NaN  Nx:     NaN   dN:       NaN
 TRCHEK2: N2 convergence failed.
 x:  0.00000  0.00000  0.00000  N:    NaN  9.000    NaN  Nx:     NaN   dN:       NaN
 TRCHEK2: N2 convergence failed.
 x:  0.00000  0.00000  0.00000  N:    NaN  9.000    NaN  Nx:     NaN   dN:       NaN
 TRCHEK2: N2 convergence failed.
 x:  0.00000  0.00000  0.00000  N:    NaN  9.000    NaN  Nx:     NaN   dN:       NaN
 TRCHEK2: N2 convergence failed.
 x:  0.00000  0.00000  0.00000  N:    NaN  9.000    NaN  Nx:     NaN   dN:       NaN
 TRCHEK2: N2 convergence failed.
 x:  0.00000  0.00000  0.00000  N:    NaN  9.000    NaN  Nx:     NaN   dN:       NaN
 MRCHDU: Convergence failed at  24  side 2    Res =         NaN
 TRCHEK2: N2 convergence failed.
 x:  0.00000  0.00000  0.00000  N:    NaN  9.000    NaN  Nx:     NaN   dN:       NaN
 TRCHEK2: N2 convergence failed.
 x:  0.00000  0.00000  0.00000  N:    NaN  9.000    NaN  Nx:     NaN   dN:       NaN
 TRCHEK2: N2 convergence failed.
 x:  0.00000  0.00000  0.00000  N:    NaN  9.000    NaN  Nx:     NaN   dN:       NaN
 TRCHEK2: N2 convergence failed.
 x:  0.00000  0.00000  0.00000  N:    NaN  9.000    NaN  Nx:     NaN   dN:       NaN
 TRCHEK2: N2 convergence failed.
 x:  0.00000  0.00000  0.00000  N:    NaN  9.000    NaN  Nx:     NaN   dN:       NaN
 TRCHEK2: N2 convergence failed.
 x:  0.00000  0.00000  0.00000  N:    NaN  9.000    NaN  Nx:     NaN   dN:       NaN
 TRCHEK2: N2 convergence failed.
 x:  0.00000  0.00000  0.00000  N:    NaN  9.000    NaN  Nx:     NaN   dN:       NaN
 TRCHEK2: N2 convergence failed.
 x:  0.00000  0.00000  0.00000  N:    NaN  9.000    NaN  Nx:     NaN   dN:       NaN
 TRCHEK2: N2 convergence failed.
 x:  0.00000  0.00000  0.00000  N:    NaN  9.000    NaN  Nx:     NaN   dN:       NaN
 TRCHEK2: N2 convergence failed.
 x:  0.00000  0.00000  0.00000  N:    NaN  9.000    NaN  Nx:     NaN   dN:       NaN
 TRCHEK2: N2 convergence failed.
 x:  0.00000  0.00000  0.00000  N:    NaN  9.000    NaN  Nx:     NaN   dN:       NaN
 TRCHEK2: N2 convergence failed.
 x:  0.00000  0.00000  0.00000  N:    NaN  9.000    NaN  Nx:     NaN   dN:       NaN
 TRCHEK2: N2 convergence failed.
 x:  0.00000  0.00000  0.00000  N:    NaN  9.000    NaN  Nx:     NaN   dN:       NaN
 TRCHEK2: N2 convergence failed.
 x:  0.00000  0.00000  0.00000  N:    NaN  9.000    NaN  Nx:     NaN   dN:       NaN
 TRCHEK2: N2 convergence failed.
 x:  0.00000  0.00000  0.00000  N:    NaN  9.000    NaN  Nx:     NaN   dN:       NaN
 TRCHEK2: N2 convergence failed.
 x:  0.00000  0.00000  0.00000  N:    NaN  9.000    NaN  Nx:     NaN   dN:       NaN
 TRCHEK2: N2 convergence failed.
 x:  0.00000  0.00000  0.00000  N:    NaN  9.000    NaN  Nx:     NaN   dN:       NaN
 TRCHEK2: N2 convergence failed.
 x:  0.00000  0.00000  0.00000  N:    NaN  9.000    NaN  Nx:     NaN   dN:       NaN
 TRCHEK2: N2 convergence failed.
 x:  0.00000  0.00000  0.00000  N:    NaN  9.000    NaN  Nx:     NaN   dN:       NaN
 TRCHEK2: N2 convergence failed.
 x:  0.00000  0.00000  0.00000  N:    NaN  9.000    NaN  Nx:     NaN   dN:       NaN
 TRCHEK2: N2 convergence failed.
 x:  0.00000  0.00000  0.00000  N:    NaN  9.000    NaN  Nx:     NaN   dN:       NaN
 TRCHEK2: N2 convergence failed.
 x:  0.00000  0.00000  0.00000  N:    NaN  9.000    NaN  Nx:     NaN   dN:       NaN
 TRCHEK2: N2 convergence failed.
 x:  0.00000  0.00000  0.00000  N:    NaN  9.000    NaN  Nx:     NaN   dN:       NaN
 TRCHEK2: N2 convergence failed.
 x:  0.00000  0.00000  0.00000  N:    NaN  9.000    NaN  Nx:     NaN   dN:       NaN
 TRCHEK2: N2 convergence failed.
 x:  0.00000  0.00000  0.00000  N:    NaN  9.000    NaN  Nx:     NaN   dN:       NaN
 TRCHEK2: N2 convergence failed.
 x:  0.00000  0.00000  0.00000  N:    NaN  9.000    NaN  Nx:     NaN   dN:       NaN
 MRCHDU: Convergence failed at  25  side 2    Res =         NaN
 TRCHEK2: N2 convergence failed.
 x:  0.00000  0.00000  0.00000  N:    NaN  9.000    NaN  Nx:     NaN   dN:       NaN
 TRCHEK2: N2 convergence failed.
 x:  0.00000  0.00000  0.00000  N:    NaN  9.000    NaN  Nx:     NaN   dN:       NaN
 TRCHEK2: N2 convergence failed.
 x:  0.00000  0.00000  0.00000  N:    NaN  9.000    NaN  Nx:     NaN   dN:       NaN
 TRCHEK2: N2 convergence failed.
 x:  0.00000  0.00000  0.00000  N:    NaN  9.000    NaN  Nx:     NaN   dN:       NaN
 TRCHEK2: N2 convergence failed.
 x:  0.00000  0.00000  0.00000  N:    NaN  9.000    NaN  Nx:     NaN   dN:       NaN
 TRCHEK2: N2 convergence failed.
 x:  0.00000  0.00000  0.00000  N:    NaN  9.000    NaN  Nx:     NaN   dN:       NaN
 TRCHEK2: N2 convergence failed.
 x:  0.00000  0.00000  0.00000  N:    NaN  9.000    NaN  Nx:     NaN   dN:       NaN
 TRCHEK2: N2 convergence failed.
 x:  0.00000  0.00000  0.00000  N:    NaN  9.000    NaN  Nx:     NaN   dN:       NaN
 TRCHEK2: N2 convergence failed.
 x:  0.00000  0.00000  0.00000  N:    NaN  9.000    NaN  Nx:     NaN   dN:       NaN
 TRCHEK2: N2 convergence failed.
 x:  0.00000  0.00000  0.00000  N:    NaN  9.000    NaN  Nx:     NaN   dN:       NaN
 TRCHEK2: N2 convergence failed.
 x:  0.00000  0.00000  0.00000  N:    NaN  9.000    NaN  Nx:     NaN   dN:       NaN
 TRCHEK2: N2 convergence failed.
 x:  0.00000  0.00000  0.00000  N:    NaN  9.000    NaN  Nx:     NaN   dN:       NaN
 TRCHEK2: N2 convergence failed.
 x:  0.00000  0.00000  0.00000  N:    NaN  9.000    NaN  Nx:     NaN   dN:       NaN
 TRCHEK2: N2 convergence failed.
 x:  0.00000  0.00000  0.00000  N:    NaN  9.000    NaN  Nx:     NaN   dN:       NaN
 TRCHEK2: N2 convergence failed.
 x:  0.00000  0.00000  0.00000  N:    NaN  9.000    NaN  Nx:     NaN   dN:       NaN
 TRCHEK2: N2 convergence failed.
 x:  0.00000  0.00000  0.00000  N:    NaN  9.000    NaN  Nx:     NaN   dN:       NaN
 TRCHEK2: N2 convergence failed.
 x:  0.00000  0.00000  0.00000  N:    NaN  9.000    NaN  Nx:     NaN   dN:       NaN
 TRCHEK2: N2 convergence failed.
 x:  0.00000  0.00000  0.00000  N:    NaN  9.000    NaN  Nx:     NaN   dN:       NaN
 TRCHEK2: N2 convergence failed.
 x:  0.00000  0.00000  0.00000  N:    NaN  9.000    NaN  Nx:     NaN   dN:       NaN
 TRCHEK2: N2 convergence failed.
 x:  0.00000  0.00000  0.00000  N:    NaN  9.000    NaN  Nx:     NaN   dN:       NaN
 TRCHEK2: N2 convergence failed.
 x:  0.00000  0.00000  0.00000  N:    NaN  9.000    NaN  Nx:     NaN   dN:       NaN
 TRCHEK2: N2 convergence failed.
 x:  0.00000  0.00000  0.00000  N:    NaN  9.000    NaN  Nx:     NaN   dN:       NaN
 TRCHEK2: N2 convergence failed.
 x:  0.00000  0.00000  0.00000  N:    NaN  9.000    NaN  Nx:     NaN   dN:       NaN
 TRCHEK2: N2 convergence failed.
 x:  0.00000  0.00000  0.00000  N:    NaN  9.000    NaN  Nx:     NaN   dN:       NaN
 TRCHEK2: N2 convergence failed.
 x:  0.00000  0.00000  0.00000  N:    NaN  9.000    NaN  Nx:     NaN   dN:       NaN
 TRCHEK2: N2 convergence failed.
 x:  0.00000  0.00000  0.00000  N:    NaN  9.000    NaN  Nx:     NaN   dN:       NaN
 MRCHDU: Convergence failed at  26  side 2    Res =         NaN
 TRCHEK2: N2 convergence failed.
 x:  0.00000  0.00000  0.00000  N:    NaN  9.000    NaN  Nx:     NaN   dN:       NaN
 TRCHEK2: N2 convergence failed.
 x:  0.00000  0.00000  0.00000  N:    NaN  9.000    NaN  Nx:     NaN   dN:       NaN
 TRCHEK2: N2 convergence failed.
 x:  0.00000  0.00000  0.00000  N:    NaN  9.000    NaN  Nx:     NaN   dN:       NaN
 TRCHEK2: N2 convergence failed.
 x:  0.00000  0.00000  0.00000  N:    NaN  9.000    NaN  Nx:     NaN   dN:       NaN
 TRCHEK2: N2 convergence failed.
 x:  0.00000  0.00000  0.00000  N:    NaN  9.000    NaN  Nx:     NaN   dN:       NaN
 TRCHEK2: N2 convergence failed.
 x:  0.00000  0.00000  0.00000  N:    NaN  9.000    NaN  Nx:     NaN   dN:       NaN
 TRCHEK2: N2 convergence failed.
 x:  0.00000  0.00000  0.00000  N:    NaN  9.000    NaN  Nx:     NaN   dN:       NaN
 TRCHEK2: N2 convergence failed.
 x:  0.00000  0.00000  0.00000  N:    NaN  9.000    NaN  Nx:     NaN   dN:       NaN
 TRCHEK2: N2 convergence failed.
 x:  0.00000  0.00000  0.00000  N:    NaN  9.000    NaN  Nx:     NaN   dN:       NaN
 TRCHEK2: N2 convergence failed.
 x:  0.00000  0.00000  0.00000  N:    NaN  9.000    NaN  Nx:     NaN   dN:       NaN
 TRCHEK2: N2 convergence failed.
 x:  0.00000  0.00000  0.00000  N:    NaN  9.000    NaN  Nx:     NaN   dN:       NaN
 TRCHEK2: N2 convergence failed.
 x:  0.00000  0.00000  0.00000  N:    NaN  9.000    NaN  Nx:     NaN   dN:       NaN
 TRCHEK2: N2 convergence failed.
 x:  0.00000  0.00000  0.00000  N:    NaN  9.000    NaN  Nx:     NaN   dN:       NaN
 TRCHEK2: N2 convergence failed.
 x:  0.00000  0.00000  0.00000  N:    NaN  9.000    NaN  Nx:     NaN   dN:       NaN
 TRCHEK2: N2 convergence failed.
 x:  0.00000  0.00000  0.00000  N:    NaN  9.000    NaN  Nx:     NaN   dN:       NaN
 TRCHEK2: N2 convergence failed.
 x:  0.00000  0.00000  0.00000  N:    NaN  9.000    NaN  Nx:     NaN   dN:       NaN
 TRCHEK2: N2 convergence failed.
 x:  0.00000  0.00000  0.00000  N:    NaN  9.000    NaN  Nx:     NaN   dN:       NaN
 TRCHEK2: N2 convergence failed.
 x:  0.00000  0.00000  0.00000  N:    NaN  9.000    NaN  Nx:     NaN   dN:       NaN
 TRCHEK2: N2 convergence failed.
 x:  0.00000  0.00000  0.00000  N:    NaN  9.000    NaN  Nx:     NaN   dN:       NaN
 TRCHEK2: N2 convergence failed.
 x:  0.00000  0.00000  0.00000  N:    NaN  9.000    NaN  Nx:     NaN   dN:       NaN
 TRCHEK2: N2 convergence failed.
 x:  0.00000  0.00000  0.00000  N:    NaN  9.000    NaN  Nx:     NaN   dN:       NaN
 TRCHEK2: N2 convergence failed.
 x:  0.00000  0.00000  0.00000  N:    NaN  9.000    NaN  Nx:     NaN   dN:       NaN
 TRCHEK2: N2 convergence failed.
 x:  0.00000  0.00000  0.00000  N:    NaN  9.000    NaN  Nx:     NaN   dN:       NaN
 TRCHEK2: N2 convergence failed.
 x:  0.00000  0.00000  0.00000  N:    NaN  9.000    NaN  Nx:     NaN   dN:       NaN
 TRCHEK2: N2 convergence failed.
 x:  0.00000  0.00000  0.00000  N:    NaN  9.000    NaN  Nx:     NaN   dN:       NaN
 TRCHEK2: N2 convergence failed.
 x:  0.00000  0.00000  0.00000  N:    NaN  9.000    NaN  Nx:     NaN   dN:       NaN
 MRCHDU: Convergence failed at  27  side 2    Res =         NaN
 TRCHEK2: N2 convergence failed.
 x:  0.00000  0.00000  0.00000  N:    NaN  9.000    NaN  Nx:     NaN   dN:       NaN
 MRCHDU: Convergence failed at  28  side 2    Res =         NaN
 MRCHDU: Convergence failed at  29  side 2    Res =         NaN
 MRCHDU: Convergence failed at  30  side 2    Res =         NaN
 MRCHDU: Convergence failed at  31  side 2    Res =         NaN
 MRCHDU: Convergence failed at  32  side 2    Res =         NaN
 MRCHDU: Convergence failed at  33  side 2    Res =         NaN
 MRCHDU: Convergence failed at  34  side 2    Res =         NaN
 MRCHDU: Convergence failed at  35  side 2    Res =         NaN
 Side 1  free  transition at x/c =  1.0000   28
 TRCHEK2: N2 convergence failed.
 x:  0.00000  0.00000  0.00055  N:    NaN  9.000    NaN  Nx:     NaN   dN:       NaN
 SETBL: Xtr???  n1 n2:              NaN             NaN
 Side 2  free  transition at x/c =  1.0000   29
 STFIND: Stagnation point not found. Continuing ...

  10   rms:        NaN   max: 0.0000E+00     at    0  0
       a = 10.000      CL =     NaN
      Cm =     NaN     CD =      NaN   =>   CDf =      NaN    CDp =      NaN
 VISCAL:  Convergence failed

.OPERva   c>  
.OPERva   c>  
.OPERva   c>  
        airfoil                    Re           Mach       Ncrit  XtripT  XtripB     file
       ------------------------  ------------  ----------  -----  ------  ------    -------------------
 >  1  xfoil                     1.000e6       0.200        9.00   1.000   1.000    

Enter polar output filename   s>  
 Output file exists.  Overwrite?  Y

.OPERva   c>  
 XFOIL   c>  